
     RDKit          3D

 11 12  0  0  0  0  0  0  0  0999 V2000
    8.1330  -31.5170  -30.8640 C   0  0  0  0  0  0  0  0  0  0  0  0
    7.6870  -35.8560  -34.8320 C   0  0  0  0  0  0  0  0  0  0  0  0
    7.4490  -34.6150  -33.9870 C   0  0  0  0  0  0  0  0  0  0  0  0
    8.9390  -32.5850  -31.4160 N   0  0  0  0  0  0  0  0  0  0  0  0
    6.9200  -32.4380  -32.4020 C   0  0  0  0  0  0  0  0  0  0  0  0
    8.1170  -33.1160  -32.3230 C   0  0  0  0  0  0  0  0  0  0  0  0
    6.9750  -31.4450  -31.4640 C   0  0  0  0  0  0  0  0  0  0  0  0
    8.8120  -35.6260  -35.8100 C   0  0  0  0  0  0  0  0  0  0  0  0
    8.3950  -34.2010  -33.1390 N   0  0  0  0  0  0  0  0  0  0  0  0
    6.2050  -33.9330  -34.1210 C   0  0  0  0  0  0  0  0  0  0  0  0
    5.9570  -32.7890  -33.3420 C   0  0  0  0  0  0  0  0  0  0  0  0
  2  3  1  0
  3  9  2  0
  4  1  1  0
  5  6  1  0
  5  7  1  0
  6  4  2  0
  7  1  2  0
  8  2  1  0
  9  6  1  0
 10  3  1  0
 10 11  1  0
 11  5  2  0
M  END
$$$$

     RDKit          3D

  6  5  0  0  0  0  0  0  0  0999 V2000
    7.9920  -33.6190  -33.2100 C   0  0  0  0  0  0  0  0  0  0  0  0
    9.7660  -35.5130  -33.1570 N   0  0  0  0  0  0  0  0  0  0  0  0
    6.6260  -32.8080  -33.1010 C   0  0  0  0  0  0  0  0  0  0  0  0
    6.7770  -31.7840  -31.9460 C   0  0  0  0  0  0  0  0  0  0  0  0
    7.7070  -34.9190  -33.9870 C   0  0  0  0  0  0  0  0  0  0  0  0
    8.6270  -35.8750  -33.8410 C   0  0  0  0  0  0  0  0  0  0  0  0
  1  3  1  0
  3  4  1  0
  5  6  1  0
  5  1  1  0
  6  2  1  0
M  END
$$$$

     RDKit          3D

 11 11  0  0  0  0  0  0  0  0999 V2000
    6.0300  -34.0950  -34.2670 C   0  0  0  0  0  0  0  0  0  0  0  0
    9.7510  -33.4190  -32.2690 C   0  0  0  0  0  0  0  0  0  0  0  0
    7.5020  -32.7160  -32.5880 C   0  0  0  0  0  0  0  0  0  0  0  0
    7.2370  -33.8560  -33.3700 C   0  0  0  0  0  0  0  0  0  0  0  0
    9.5130  -34.5950  -32.9400 C   0  0  0  0  0  0  0  0  0  0  0  0
    6.5390  -31.6320  -32.1790 C   0  0  0  0  0  0  0  0  0  0  0  0
    8.7390  -32.5290  -31.9940 N   0  0  0  0  0  0  0  0  0  0  0  0
    6.2080  -35.1230  -35.0090 O   0  0  0  0  0  0  0  0  0  0  0  0
   10.9350  -33.2030  -31.8730 O   0  0  0  0  0  0  0  0  0  0  0  0
    8.2540  -34.7850  -33.4840 C   0  0  0  0  0  0  0  0  0  0  0  0
    5.1580  -33.2970  -34.1800 O   0  0  0  0  0  0  0  0  0  0  0  0
  1 11  1  0
  2  7  1  0
  2  9  2  0
  3  6  1  0
  3  7  2  0
  4  1  1  0
  4  3  1  0
  5  2  1  0
  8  1  2  0
 10  4  1  0
 10  5  2  0
M  END
$$$$

     RDKit          3D

  5  5  0  0  0  0  0  0  0  0999 V2000
   10.4870  -34.1470  -33.3610 C   0  0  0  0  0  0  0  0  0  0  0  0
    8.6100  -32.6880  -32.8060 C   0  0  0  0  0  0  0  0  0  0  0  0
   10.2460  -32.7580  -33.1470 C   0  0  0  0  0  0  0  0  0  0  0  0
    8.9920  -34.6620  -34.2750 C   0  0  0  0  0  0  0  0  0  0  0  0
    8.2840  -34.1360  -33.0890 C   0  0  0  0  0  0  0  0  0  0  0  0
  1  3  1  0
  3  2  1  0
  4  1  1  0
  4  5  1  0
  5  2  1  0
M  END
$$$$

     RDKit          3D

 19 21  0  0  0  0  0  0  0  0999 V2000
    6.9790  -33.5010  -33.3110 C   0  0  0  0  0  0  0  0  0  0  0  0
    6.4540  -31.6230  -32.0330 O   0  0  0  0  0  0  0  0  0  0  0  0
    9.3180  -34.1630  -33.4890 C   0  0  0  0  0  0  0  0  0  0  0  0
    9.8690  -32.8460  -31.1200 C   0  0  0  0  0  0  0  0  0  0  0  0
    7.5590  -35.1390  -34.9240 C   0  0  0  0  0  0  0  0  0  0  0  0
    8.8960  -35.0080  -34.5670 C   0  0  0  0  0  0  0  0  0  0  0  0
    8.6120  -32.9700  -31.6190 C   0  0  0  0  0  0  0  0  0  0  0  0
    6.0420  -32.4760  -32.8540 C   0  0  0  0  0  0  0  0  0  0  0  0
    4.6730  -35.2550  -35.7600 C   0  0  0  0  0  0  0  0  0  0  0  0
    6.5630  -34.3420  -34.3160 C   0  0  0  0  0  0  0  0  0  0  0  0
    4.1450  -33.5520  -34.0480 C   0  0  0  0  0  0  0  0  0  0  0  0
    9.7640  -35.6140  -35.1860 O   0  0  0  0  0  0  0  0  0  0  0  0
    8.2570  -33.5320  -32.8040 C   0  0  0  0  0  0  0  0  0  0  0  0
    5.1950  -34.3620  -34.6740 C   0  0  0  0  0  0  0  0  0  0  0  0
   11.6270  -34.5830  -33.7100 O   0  0  0  0  0  0  0  0  0  0  0  0
    4.6380  -32.4430  -33.2150 C   0  0  0  0  0  0  0  0  0  0  0  0
    9.8870  -32.0500  -29.8710 C   0  0  0  0  0  0  0  0  0  0  0  0
   10.6310  -34.0470  -33.0490 C   0  0  0  0  0  0  0  0  0  0  0  0
   10.8820  -33.3220  -31.8750 C   0  0  0  0  0  0  0  0  0  0  0  0
  1  8  1  0
  1 13  1  0
  3 18  2  0
  3 13  1  0
  4 17  1  0
  5  6  1  0
  5 10  1  0
  6  3  1  0
  7  4  1  0
  8  2  2  0
  9 14  1  0
 10  1  2  0
 11 16  1  0
 12  6  2  0
 13  7  2  0
 14 10  1  0
 14 11  2  0
 15 18  1  0
 16  8  1  0
 18 19  1  0
 19  4  2  0
M  END
$$$$

     RDKit          3D

 27 31  0  0  0  0  0  0  0  0999 V2000
    3.9570  -33.1550  -33.7000 C   0  0  0  0  0  0  0  0  0  0  0  0
    1.9120  -31.9900  -33.0270 C   0  0  0  0  0  0  0  0  0  0  0  0
   11.5770  -34.6500  -33.6500 C   0  0  0  0  0  0  0  0  0  0  0  0
    7.3110  -32.9190  -32.2490 N   0  0  0  0  0  0  0  0  0  0  0  0
   10.3330  -34.1600  -33.0950 C   0  0  0  0  0  0  0  0  0  0  0  0
    6.5210  -35.0440  -35.0170 C   0  0  0  0  0  0  0  0  0  0  0  0
   10.1910  -36.2690  -34.9130 C   0  0  0  0  0  0  0  0  0  0  0  0
   11.5780  -35.8820  -34.3550 C   0  0  0  0  0  0  0  0  0  0  0  0
    3.2940  -32.3380  -32.8520 O   0  0  0  0  0  0  0  0  0  0  0  0
    5.9210  -32.4720  -32.5270 N   0  0  0  0  0  0  0  0  0  0  0  0
    3.9100  -34.8490  -35.4770 C   0  0  0  0  0  0  0  0  0  0  0  0
    7.7800  -35.8030  -35.2640 C   0  0  0  0  0  0  0  0  0  0  0  0
    5.4470  -33.1970  -33.5610 C   0  0  0  0  0  0  0  0  0  0  0  0
    9.0480  -35.5640  -34.5300 C   0  0  0  0  0  0  0  0  0  0  0  0
   12.6670  -33.7220  -33.5450 C   0  0  0  0  0  0  0  0  0  0  0  0
    2.9090  -35.6300  -36.7010 Cl  0  0  0  0  0  0  0  0  0  0  0  0
    6.6370  -34.0410  -34.0270 C   0  0  0  0  0  0  0  0  0  0  0  0
    9.0840  -34.5820  -33.6040 C   0  0  0  0  0  0  0  0  0  0  0  0
   12.8110  -33.2550  -32.0850 C   0  0  0  0  0  0  0  0  0  0  0  0
    7.6170  -31.3240  -30.4530 C   0  0  0  0  0  0  0  0  0  0  0  0
    5.2100  -35.1960  -35.5480 C   0  0  0  0  0  0  0  0  0  0  0  0
    7.8080  -33.8440  -33.2020 C   0  0  0  0  0  0  0  0  0  0  0  0
    3.2160  -33.8660  -34.7100 C   0  0  0  0  0  0  0  0  0  0  0  0
   13.8190  -34.0450  -34.2910 N   0  0  0  0  0  0  0  0  0  0  0  0
    8.0400  -32.6600  -30.9860 C   0  0  0  0  0  0  0  0  0  0  0  0
    9.0250  -31.5770  -30.7990 C   0  0  0  0  0  0  0  0  0  0  0  0
    6.3540  -30.8300  -30.8940 O   0  0  0  0  0  0  0  0  0  0  0  0
  1 13  1  0
  1  9  1  0
  2  9  1  0
  3 15  1  0
  3  5  1  0
  6 17  1  0
  7 14  1  0
  7  8  1  0
  8  3  1  0
 10  4  1  0
 11 23  1  0
 12  6  2  0
 12 14  1  0
 13 10  2  0
 14 18  2  0
 15 19  1  0
 16 11  1  0
 17 13  1  0
 17 22  2  0
 18 22  1  0
 18  5  1  0
 20 27  1  0
 21 11  2  0
 21  6  1  0
 22  4  1  0
 23  1  2  0
 24 15  1  0
 25  4  1  0
 25 26  1  0
 25 20  1  0
 26 20  1  0
M  END
$$$$

     RDKit          3D

 12 12  0  0  0  0  0  0  0  0999 V2000
    9.8810  -34.4890  -33.0900 C   0  0  0  0  0  0  0  0  0  0  0  0
    7.5380  -35.7650  -35.5020 C   0  0  0  0  0  0  0  0  0  0  0  0
    6.5940  -32.2570  -32.3130 N   0  0  0  0  0  0  0  0  0  0  0  0
    9.9860  -33.5380  -32.1220 C   0  0  0  0  0  0  0  0  0  0  0  0
    8.8130  -35.5520  -34.9910 N   0  0  0  0  0  0  0  0  0  0  0  0
    8.8510  -32.7220  -31.8460 C   0  0  0  0  0  0  0  0  0  0  0  0
    8.7120  -34.6460  -33.9230 C   0  0  0  0  0  0  0  0  0  0  0  0
    5.2770  -32.4620  -32.8400 C   0  0  0  0  0  0  0  0  0  0  0  0
    7.6030  -33.9260  -33.6400 C   0  0  0  0  0  0  0  0  0  0  0  0
    7.6850  -32.9510  -32.5720 C   0  0  0  0  0  0  0  0  0  0  0  0
    9.4940  -36.7520  -34.7480 C   0  0  0  0  0  0  0  0  0  0  0  0
    6.7300  -31.3120  -31.1920 C   0  0  0  0  0  0  0  0  0  0  0  0
  1  4  1  0
  2  5  1  0
  3 12  1  0
  4  6  2  0
  5 11  1  0
  5  7  1  0
  7  9  1  0
  7  1  2  0
  8  3  1  0
  9 10  2  0
 10  3  1  0
 10  6  1  0
M  END
$$$$

     RDKit          3D

 36 41  0  0  0  0  0  0  0  0999 V2000
    5.7440  -33.0120  -33.3730 C   0  0  0  0  0  0  0  0  0  0  0  0
   15.6880  -34.3250  -34.3090 C   0  0  0  0  0  0  0  0  0  0  0  0
   12.2930  -34.6080  -31.3570 C   0  0  0  0  0  0  0  0  0  0  0  0
    1.3150  -34.2000  -36.7590 C   0  0  0  0  0  0  0  0  0  0  0  0
    1.5900  -35.2030  -37.8510 C   0  0  0  0  0  0  0  0  0  0  0  0
    5.8090  -35.2270  -35.4130 C   0  0  0  0  0  0  0  0  0  0  0  0
    5.6570  -31.3490  -31.0860 C   0  0  0  0  0  0  0  0  0  0  0  0
   13.8480  -33.0800  -33.3810 S   0  0  0  0  0  0  0  0  0  0  0  0
    4.4040  -31.0780  -30.4730 N   0  0  0  0  0  0  0  0  0  0  0  0
    6.6240  -34.7350  -34.8070 C   0  0  0  0  0  0  0  0  0  0  0  0
    2.3620  -31.6920  -30.2640 C   0  0  0  0  0  0  0  0  0  0  0  0
    0.1070  -34.4250  -36.1620 N   0  0  0  0  0  0  0  0  0  0  0  0
   10.5180  -36.0050  -34.5750 C   0  0  0  0  0  0  0  0  0  0  0  0
   10.6770  -32.8310  -30.2400 C   0  0  0  0  0  0  0  0  0  0  0  0
    7.3180  -33.9320  -33.7410 C   0  0  0  0  0  0  0  0  0  0  0  0
   14.4430  -34.8920  -33.8850 C   0  0  0  0  0  0  0  0  0  0  0  0
    3.0970  -32.7760  -33.5660 C   0  0  0  0  0  0  0  0  0  0  0  0
    9.1310  -35.6120  -33.9370 C   0  0  0  0  0  0  0  0  0  0  0  0
    5.3620  -32.2040  -32.2460 C   0  0  0  0  0  0  0  0  0  0  0  0
   10.1810  -33.7810  -32.4710 C   0  0  0  0  0  0  0  0  0  0  0  0
    4.3380  -34.5990  -34.7380 C   0  0  0  0  0  0  0  0  0  0  0  0
    8.8510  -32.1570  -31.9450 O   0  0  0  0  0  0  0  0  0  0  0  0
    3.3300  -31.6630  -30.9980 N   0  0  0  0  0  0  0  0  0  0  0  0
   11.4220  -34.5100  -32.6020 C   0  0  0  0  0  0  0  0  0  0  0  0
    8.7810  -34.3530  -33.2790 C   0  0  0  0  0  0  0  0  0  0  0  0
    3.0910  -35.4410  -37.9270 O   0  0  0  0  0  0  0  0  0  0  0  0
    9.7710  -32.8770  -31.4940 C   0  0  0  0  0  0  0  0  0  0  0  0
   13.1330  -36.2030  -35.3070 O   0  0  0  0  0  0  0  0  0  0  0  0
   11.6230  -35.1920  -33.8440 C   0  0  0  0  0  0  0  0  0  0  0  0
    2.1640  -33.3030  -34.6220 C   0  0  0  0  0  0  0  0  0  0  0  0
   13.0820  -35.4770  -34.5050 C   0  0  0  0  0  0  0  0  0  0  0  0
   12.1500  -33.5140  -30.2870 C   0  0  0  0  0  0  0  0  0  0  0  0
   15.7430  -32.8960  -33.4890 C   0  0  0  0  0  0  0  0  0  0  0  0
    3.6420  -32.1640  -32.2900 C   0  0  0  0  0  0  0  0  0  0  0  0
    2.3020  -34.0680  -35.8340 N   0  0  0  0  0  0  0  0  0  0  0  0
    4.4620  -33.4850  -33.9300 C   0  0  0  0  0  0  0  0  0  0  0  0
  1 19  1  0
  2 16  1  0
  2 33  1  0
  3 32  1  0
  4 12  1  0
  4 35  1  0
  5  4  1  0
  6 10  2  0
  6 21  1  0
  7  9  1  0
 10 15  1  0
 13 18  1  0
 13 29  1  0
 15  1  2  0
 16 31  1  0
 16  8  1  0
 17 34  1  0
 18 25  1  0
 19  7  1  0
 20 27  1  0
 21 36  1  0
 22 27  2  0
 23  9  1  0
 23 11  1  0
 24 20  1  0
 24  3  1  0
 25 15  1  0
 25 20  1  0
 26  5  1  0
 27 14  1  0
 28 31  2  0
 29 31  1  0
 29 24  1  0
 30 17  1  0
 32 14  1  0
 33  8  1  0
 34 19  2  0
 34 23  1  0
 35 30  2  3
 36 17  2  0
 36  1  1  0
M  END
$$$$

     RDKit          3D

 17 19  0  0  0  0  0  0  0  0999 V2000
    7.7860  -34.3700  -34.0770 C   0  0  0  0  0  0  0  0  0  0  0  0
    6.5530  -34.4600  -34.5070 N   0  0  0  0  0  0  0  0  0  0  0  0
   10.1910  -34.3830  -31.7780 C   0  0  0  0  0  0  0  0  0  0  0  0
    9.7090  -35.9740  -33.7400 C   0  0  0  0  0  0  0  0  0  0  0  0
    5.5470  -33.6160  -34.0720 C   0  0  0  0  0  0  0  0  0  0  0  0
    8.2370  -32.4430  -32.4340 C   0  0  0  0  0  0  0  0  0  0  0  0
    8.9180  -35.2920  -34.7230 C   0  0  0  0  0  0  0  0  0  0  0  0
    5.0610  -31.6470  -30.9940 C   0  0  0  0  0  0  0  0  0  0  0  0
    6.1250  -31.7110  -31.1770 C   0  0  0  0  0  0  0  0  0  0  0  0
   10.6290  -33.0420  -33.3560 C   0  0  0  0  0  0  0  0  0  0  0  0
    9.8340  -33.8490  -33.0300 C   0  0  0  0  0  0  0  0  0  0  0  0
    9.0300  -32.5070  -31.8830 O   0  0  0  0  0  0  0  0  0  0  0  0
    8.5080  -33.3230  -33.6190 C   0  0  0  0  0  0  0  0  0  0  0  0
    4.2250  -33.3250  -34.8430 C   0  0  0  0  0  0  0  0  0  0  0  0
   10.1850  -34.6780  -34.2520 C   0  0  0  0  0  0  0  0  0  0  0  0
    6.7560  -32.4470  -32.4500 C   0  0  0  0  0  0  0  0  0  0  0  0
    5.6970  -32.8430  -33.0730 N   0  0  0  0  0  0  0  0  0  0  0  0
  1  2  1  0
  1 13  1  0
  2  5  2  0
  5 17  1  0
  6 12  2  0
  7 15  1  0
  7  1  1  0
  7  4  1  0
  9  8  2  0
 10 11  1  0
 11  3  1  0
 13 11  1  0
 13  6  1  0
 14  5  1  0
 15  4  1  0
 15 11  1  0
 16  6  1  0
 16  9  1  0
 17 16  2  0
M  END
$$$$

     RDKit          3D

 10 10  0  0  0  0  0  0  0  0999 V2000
    8.1650  -32.8410  -32.5800 C   0  0  0  0  0  0  0  0  0  0  0  0
    8.0620  -31.9580  -31.5140 C   0  0  0  0  0  0  0  0  0  0  0  0
    7.0610  -33.1840  -33.3020 C   0  0  0  0  0  0  0  0  0  0  0  0
   11.7710  -33.9150  -32.8220 C   0  0  0  0  0  0  0  0  0  0  0  0
   10.1560  -35.1330  -34.2970 C   0  0  0  0  0  0  0  0  0  0  0  0
    5.6720  -31.8000  -31.9830 C   0  0  0  0  0  0  0  0  0  0  0  0
   10.2900  -34.3670  -33.0020 C   0  0  0  0  0  0  0  0  0  0  0  0
    9.4690  -33.0980  -33.1520 C   0  0  0  0  0  0  0  0  0  0  0  0
    6.6680  -31.4300  -31.2100 C   0  0  0  0  0  0  0  0  0  0  0  0
    5.8410  -32.7270  -33.0120 C   0  0  0  0  0  0  0  0  0  0  0  0
  1  2  1  0
  2  9  2  0
  3 10  1  0
  3  1  2  0
  5  7  1  0
  6  9  1  0
  7  4  1  0
  8  7  1  0
  8  1  1  0
 10  6  2  0
M  END
$$$$

     RDKit          3D

 37 41  0  0  0  0  0  0  0  0999 V2000
   13.8500  -33.8550  -30.7610 C   0  0  0  0  0  0  0  0  0  0  0  0
    3.2960  -33.0300  -34.0370 C   0  0  0  0  0  0  0  0  0  0  0  0
    7.6680  -32.7650  -33.2030 C   0  0  0  0  0  0  0  0  0  0  0  0
    9.0690  -35.8220  -35.9480 C   0  0  0  0  0  0  0  0  0  0  0  0
    3.8120  -32.4550  -33.0390 C   0  0  0  0  0  0  0  0  0  0  0  0
   12.2500  -33.3850  -32.2180 C   0  0  0  0  0  0  0  0  0  0  0  0
    5.0450  -34.4730  -37.0750 C   0  0  0  0  0  0  0  0  0  0  0  0
    4.3650  -34.2240  -35.7530 C   0  0  0  0  0  0  0  0  0  0  0  0
   11.6800  -32.8720  -30.0350 C   0  0  0  0  0  0  0  0  0  0  0  0
    9.7880  -35.2190  -31.7780 C   0  0  0  0  0  0  0  0  0  0  0  0
    2.4150  -31.1910  -31.9330 C   0  0  0  0  0  0  0  0  0  0  0  0
    7.6220  -31.7580  -30.6990 C   0  0  0  0  0  0  0  0  0  0  0  0
    1.0460  -32.0690  -33.9800 C   0  0  0  0  0  0  0  0  0  0  0  0
    6.4650  -33.2710  -33.0850 C   0  0  0  0  0  0  0  0  0  0  0  0
    8.0320  -32.5200  -31.8060 C   0  0  0  0  0  0  0  0  0  0  0  0
    9.7700  -32.8500  -31.9730 N   0  0  0  0  0  0  0  0  0  0  0  0
   13.4870  -33.7310  -32.1910 C   0  0  0  0  0  0  0  0  0  0  0  0
   11.0920  -32.8090  -31.3470 C   0  0  0  0  0  0  0  0  0  0  0  0
   10.5250  -36.6710  -33.5970 C   0  0  0  0  0  0  0  0  0  0  0  0
    5.1670  -31.5980  -31.6800 C   0  0  0  0  0  0  0  0  0  0  0  0
    6.0980  -34.7950  -37.5480 N   0  0  0  0  0  0  0  0  0  0  0  0
    9.7700  -35.3410  -33.2260 C   0  0  0  0  0  0  0  0  0  0  0  0
    3.8150  -31.2240  -31.5150 N   0  0  0  0  0  0  0  0  0  0  0  0
   10.0300  -36.2780  -31.0130 O   0  0  0  0  0  0  0  0  0  0  0  0
    5.2000  -32.7580  -32.6430 C   0  0  0  0  0  0  0  0  0  0  0  0
    9.5500  -37.0490  -35.6220 O   0  0  0  0  0  0  0  0  0  0  0  0
   10.7260  -32.2310  -29.0150 C   0  0  0  0  0  0  0  0  0  0  0  0
    9.7870  -37.6490  -34.3770 C   0  0  0  0  0  0  0  0  0  0  0  0
   12.9580  -33.3780  -29.8530 C   0  0  0  0  0  0  0  0  0  0  0  0
    1.2580  -31.4420  -32.6850 C   0  0  0  0  0  0  0  0  0  0  0  0
    7.5900  -35.6690  -36.0270 C   0  0  0  0  0  0  0  0  0  0  0  0
    4.0180  -34.0730  -34.5310 O   0  0  0  0  0  0  0  0  0  0  0  0
    6.3330  -31.2920  -30.8690 C   0  0  0  0  0  0  0  0  0  0  0  0
    2.1180  -32.8990  -34.6190 N   0  0  0  0  0  0  0  0  0  0  0  0
    7.4500  -34.9790  -37.1540 C   0  0  0  0  0  0  0  0  0  0  0  0
   14.4370  -33.8380  -33.2170 C   0  0  0  0  0  0  0  0  0  0  0  0
    9.6010  -34.1680  -32.4580 N   0  0  0  0  0  0  0  0  0  0  0  0
  1 29  1  0
  2  5  1  0
  3 14  1  0
  4 26  1  0
  5 25  1  0
  6 17  1  0
  6 18  2  0
  7  8  1  0
  8 32  1  0
  9 29  2  0
  9 27  1  0
 10 24  2  0
 11 23  1  0
 13 30  1  0
 15  3  1  0
 15 12  1  0
 16 15  1  0
 16 18  1  0
 17  1  2  0
 18  9  1  0
 20 23  1  0
 20 33  2  0
 21 35  1  0
 21  7  2  3
 22 19  1  0
 22 37  1  0
 22 10  1  0
 25 14  1  0
 25 20  1  0
 26 28  1  0
 28 19  1  0
 30 11  1  0
 31  4  1  0
 32  2  1  0
 33 12  1  0
 34  2  2  3
 34 13  1  0
 35 31  1  0
 36 17  1  0
 37 16  1  0
 37 10  1  0
M  END
$$$$

     RDKit          3D

 30 35  0  0  0  0  0  0  0  0999 V2000
    9.2530  -34.3790  -33.7790 C   0  0  0  0  0  0  0  0  0  0  0  0
    8.6910  -35.9140  -35.6110 C   0  0  0  0  0  0  0  0  0  0  0  0
    7.9300  -33.9440  -33.7050 C   0  0  0  0  0  0  0  0  0  0  0  0
   11.6690  -34.1710  -33.2630 C   0  0  0  0  0  0  0  0  0  0  0  0
    7.3580  -35.4180  -35.6490 C   0  0  0  0  0  0  0  0  0  0  0  0
    4.3250  -32.7640  -32.6520 C   0  0  0  0  0  0  0  0  0  0  0  0
   12.7350  -33.7520  -32.4380 C   0  0  0  0  0  0  0  0  0  0  0  0
   12.4980  -33.4040  -31.1080 C   0  0  0  0  0  0  0  0  0  0  0  0
    5.6300  -33.8610  -34.5430 C   0  0  0  0  0  0  0  0  0  0  0  0
    3.1940  -31.5820  -29.1610 C   0  0  0  0  0  0  0  0  0  0  0  0
    9.0920  -31.8110  -30.0930 O   0  0  0  0  0  0  0  0  0  0  0  0
    6.9300  -34.4630  -34.7080 C   0  0  0  0  0  0  0  0  0  0  0  0
    7.0360  -33.0330  -32.8520 C   0  0  0  0  0  0  0  0  0  0  0  0
    3.0340  -31.9540  -30.5990 C   0  0  0  0  0  0  0  0  0  0  0  0
    9.5720  -35.4940  -34.6320 C   0  0  0  0  0  0  0  0  0  0  0  0
    7.5090  -32.2780  -31.7660 C   0  0  0  0  0  0  0  0  0  0  0  0
   11.9750  -34.9350  -34.3460 F   0  0  0  0  0  0  0  0  0  0  0  0
    4.6550  -33.9450  -35.3510 O   0  0  0  0  0  0  0  0  0  0  0  0
   10.1080  -33.1530  -31.6680 C   0  0  0  0  0  0  0  0  0  0  0  0
    5.4220  -31.1610  -31.0130 C   0  0  0  0  0  0  0  0  0  0  0  0
    3.1230  -33.2280  -33.0810 O   0  0  0  0  0  0  0  0  0  0  0  0
    5.6120  -33.1330  -33.2620 C   0  0  0  0  0  0  0  0  0  0  0  0
   11.1050  -33.1470  -30.7560 C   0  0  0  0  0  0  0  0  0  0  0  0
   14.1520  -33.7000  -32.9740 C   0  0  0  0  0  0  0  0  0  0  0  0
    6.7300  -31.3110  -31.0900 C   0  0  0  0  0  0  0  0  0  0  0  0
    4.2570  -31.9200  -31.4430 C   0  0  0  0  0  0  0  0  0  0  0  0
    8.9060  -32.4460  -31.2450 C   0  0  0  0  0  0  0  0  0  0  0  0
    3.2270  -32.9590  -29.5610 C   0  0  0  0  0  0  0  0  0  0  0  0
   13.4690  -33.2300  -30.2720 O   0  0  0  0  0  0  0  0  0  0  0  0
   10.3520  -33.9000  -32.9180 C   0  0  0  0  0  0  0  0  0  0  0  0
  1  3  1  0
  1 30  1  0
  2 15  1  0
  3 13  1  0
  4 30  2  0
  4  7  1  0
  5  2  2  0
  5 12  1  0
  6 26  2  0
  7  8  2  0
  8 23  1  0
  8 29  1  0
  9 22  1  0
 12  9  1  0
 12  3  2  0
 13 16  1  0
 14 28  1  0
 14 10  1  0
 15  1  2  0
 16 27  2  0
 16 25  1  0
 17  4  1  0
 18  9  2  0
 19 27  1  0
 19 23  2  0
 21  6  1  0
 22 13  2  0
 22  6  1  0
 24  7  1  0
 25 20  2  0
 26 20  1  0
 26 14  1  0
 27 11  1  0
 28 10  1  0
 30 19  1  0
M  END
$$$$

     RDKit          3D

 14 16  0  0  0  0  0  0  0  0999 V2000
    8.2080  -33.9110  -33.1930 C   0  0  0  0  0  0  0  0  0  0  0  0
    9.1740  -35.3220  -35.0940 C   0  0  0  0  0  0  0  0  0  0  0  0
   10.6410  -32.9230  -30.4670 N   0  0  0  0  0  0  0  0  0  0  0  0
    6.2130  -31.2850  -31.4160 C   0  0  0  0  0  0  0  0  0  0  0  0
    9.4610  -33.8360  -32.4450 C   0  0  0  0  0  0  0  0  0  0  0  0
    9.4930  -32.9790  -31.3780 C   0  0  0  0  0  0  0  0  0  0  0  0
    7.1590  -33.1040  -32.8140 C   0  0  0  0  0  0  0  0  0  0  0  0
    7.2520  -32.1470  -31.8000 C   0  0  0  0  0  0  0  0  0  0  0  0
    8.0510  -36.1910  -34.6360 C   0  0  0  0  0  0  0  0  0  0  0  0
    5.8530  -33.3870  -33.7230 C   0  0  0  0  0  0  0  0  0  0  0  0
    7.8700  -34.8410  -34.3140 N   0  0  0  0  0  0  0  0  0  0  0  0
    6.2280  -34.5640  -34.4560 C   0  0  0  0  0  0  0  0  0  0  0  0
   10.5740  -36.0040  -34.6400 C   0  0  0  0  0  0  0  0  0  0  0  0
    8.4290  -32.0650  -31.0790 C   0  0  0  0  0  0  0  0  0  0  0  0
  1  7  2  0
  1  5  1  0
  2 13  1  0
  2  9  1  0
  2 11  1  0
  5  6  2  0
  6 14  1  0
  6  3  1  0
  7  8  1  0
  8  4  1  0
  8 14  2  0
  9 11  1  0
 10  7  1  0
 11  1  1  0
 12 11  1  0
 12 10  1  0
M  END
$$$$

     RDKit          3D

 18 20  0  0  0  0  0  0  0  0999 V2000
   12.0920  -35.0700  -34.1330 C   0  0  0  0  0  0  0  0  0  0  0  0
   12.0600  -34.1870  -33.0600 N   0  0  0  0  0  0  0  0  0  0  0  0
    9.7320  -34.7910  -34.2190 C   0  0  0  0  0  0  0  0  0  0  0  0
    4.2390  -32.0410  -31.6260 C   0  0  0  0  0  0  0  0  0  0  0  0
    5.0530  -31.2040  -31.2040 C   0  0  0  0  0  0  0  0  0  0  0  0
    9.7380  -33.9280  -33.1870 C   0  0  0  0  0  0  0  0  0  0  0  0
    8.3690  -32.4940  -31.8140 N   0  0  0  0  0  0  0  0  0  0  0  0
   10.9540  -33.8000  -32.5640 C   0  0  0  0  0  0  0  0  0  0  0  0
    7.0200  -32.1780  -31.8780 C   0  0  0  0  0  0  0  0  0  0  0  0
    7.3990  -33.5410  -33.5590 N   0  0  0  0  0  0  0  0  0  0  0  0
    6.4520  -31.3890  -30.9480 O   0  0  0  0  0  0  0  0  0  0  0  0
    8.5160  -33.3430  -32.8150 C   0  0  0  0  0  0  0  0  0  0  0  0
    4.0350  -32.5280  -32.8950 C   0  0  0  0  0  0  0  0  0  0  0  0
   10.9520  -33.2210  -31.3330 C   0  0  0  0  0  0  0  0  0  0  0  0
   10.8910  -35.3280  -34.7080 C   0  0  0  0  0  0  0  0  0  0  0  0
   11.0750  -32.7640  -30.2550 N   0  0  0  0  0  0  0  0  0  0  0  0
    5.0790  -32.9420  -33.7210 C   0  0  0  0  0  0  0  0  0  0  0  0
    6.4440  -32.8490  -32.9850 C   0  0  0  0  0  0  0  0  0  0  0  0
  1  2  1  0
  2  8  2  0
  3  6  2  0
  4  5  1  0
  5 11  1  0
  6  8  1  0
  8 14  1  0
  9  7  2  0
  9 11  1  0
 10 18  2  0
 10 12  1  0
 12  6  1  0
 12  7  1  0
 13  4  1  0
 14 16  3  0
 15  3  1  0
 15  1  2  0
 17 18  1  0
 17 13  1  0
 18  9  1  0
M  END
$$$$

     RDKit          3D

 19 22  0  0  0  0  0  0  0  0999 V2000
    5.5760  -31.7730  -31.6330 C   0  0  0  0  0  0  0  0  0  0  0  0
    9.6820  -34.5480  -33.4310 C   0  0  0  0  0  0  0  0  0  0  0  0
    6.7970  -32.7600  -32.9240 C   0  0  0  0  0  0  0  0  0  0  0  0
    9.3060  -32.9410  -31.6890 C   0  0  0  0  0  0  0  0  0  0  0  0
    6.8860  -34.4110  -34.1790 C   0  0  0  0  0  0  0  0  0  0  0  0
    9.0930  -35.3260  -34.3440 N   0  0  0  0  0  0  0  0  0  0  0  0
    4.8750  -32.5870  -32.4380 C   0  0  0  0  0  0  0  0  0  0  0  0
    7.5740  -33.5990  -33.1730 N   0  0  0  0  0  0  0  0  0  0  0  0
   10.5710  -33.0420  -31.4400 C   0  0  0  0  0  0  0  0  0  0  0  0
    8.8530  -33.6800  -32.7600 C   0  0  0  0  0  0  0  0  0  0  0  0
    5.7620  -35.9600  -35.5510 C   0  0  0  0  0  0  0  0  0  0  0  0
    3.3910  -32.7750  -32.7030 C   0  0  0  0  0  0  0  0  0  0  0  0
    5.6430  -32.7850  -33.3120 O   0  0  0  0  0  0  0  0  0  0  0  0
   11.4840  -33.8080  -32.2190 N   0  0  0  0  0  0  0  0  0  0  0  0
    7.2260  -35.9210  -35.7820 C   0  0  0  0  0  0  0  0  0  0  0  0
    6.6840  -31.8250  -32.2350 C   0  0  0  0  0  0  0  0  0  0  0  0
   10.9650  -34.5310  -33.1670 N   0  0  0  0  0  0  0  0  0  0  0  0
    7.7500  -35.3250  -34.4370 C   0  0  0  0  0  0  0  0  0  0  0  0
    5.4970  -34.7000  -34.9060 C   0  0  0  0  0  0  0  0  0  0  0  0
  2 17  1  0
  2 10  1  0
  3 16  1  0
  4  9  2  0
  5 19  1  0
  5  8  1  0
  6  2  2  0
  7 12  1  0
  7  1  1  0
  8  3  1  0
  8 10  1  0
 10  4  1  0
 11 19  1  0
 13  3  1  0
 13  7  1  0
 14  9  1  0
 15 11  1  0
 16  1  1  0
 17 14  2  0
 18 15  1  0
 18  6  1  0
 18  5  1  0
M  END
$$$$

     RDKit          3D

 11 12  0  0  0  0  0  0  0  0999 V2000
    7.5560  -33.3130  -33.1840 C   0  0  0  0  0  0  0  0  0  0  0  0
    5.9380  -34.3010  -34.3260 N   0  0  0  0  0  0  0  0  0  0  0  0
    5.5360  -35.3340  -35.3670 C   0  0  0  0  0  0  0  0  0  0  0  0
    5.4050  -33.1950  -33.7750 C   0  0  0  0  0  0  0  0  0  0  0  0
    6.3570  -32.5370  -33.1210 N   0  0  0  0  0  0  0  0  0  0  0  0
    8.9270  -35.5790  -33.9410 S   0  0  0  0  0  0  0  0  0  0  0  0
    8.8160  -33.2870  -32.7150 C   0  0  0  0  0  0  0  0  0  0  0  0
    9.2010  -32.3410  -31.8560 O   0  0  0  0  0  0  0  0  0  0  0  0
    9.6660  -34.3550  -33.0140 C   0  0  0  0  0  0  0  0  0  0  0  0
    8.5550  -32.0240  -30.6010 C   0  0  0  0  0  0  0  0  0  0  0  0
    7.3700  -34.5700  -33.9090 C   0  0  0  0  0  0  0  0  0  0  0  0
  1  5  1  0
  1  7  1  0
  2 11  1  0
  2  4  1  0
  3  2  1  0
  4  5  2  0
  6 11  1  0
  6  9  1  0
  7  8  1  0
  8 10  1  0
  9  7  2  0
 11  1  2  0
M  END
$$$$

     RDKit          3D

 28 32  0  0  0  0  0  0  0  0999 V2000
    4.2150  -31.7690  -32.6300 C   0  0  0  0  0  0  0  0  0  0  0  0
    5.1220  -32.6690  -33.2080 N   0  0  0  0  0  0  0  0  0  0  0  0
    5.2240  -33.4880  -34.2040 C   0  0  0  0  0  0  0  0  0  0  0  0
    8.7100  -34.3740  -33.0830 C   0  0  0  0  0  0  0  0  0  0  0  0
   12.6270  -32.9510  -29.1200 O   0  0  0  0  0  0  0  0  0  0  0  0
    6.5530  -32.4850  -32.7060 C   0  0  0  0  0  0  0  0  0  0  0  0
   12.1150  -33.6800  -31.4680 C   0  0  0  0  0  0  0  0  0  0  0  0
   10.6590  -32.1330  -28.6770 N   0  0  0  0  0  0  0  0  0  0  0  0
    4.6830  -31.1510  -31.3360 C   0  0  0  0  0  0  0  0  0  0  0  0
    9.4830  -32.9830  -30.9620 C   0  0  0  0  0  0  0  0  0  0  0  0
   11.7970  -33.1800  -30.2380 C   0  0  0  0  0  0  0  0  0  0  0  0
   11.9410  -32.1920  -28.2360 C   0  0  0  0  0  0  0  0  0  0  0  0
    4.1640  -33.7570  -35.2500 C   0  0  0  0  0  0  0  0  0  0  0  0
    2.8850  -34.0480  -36.9470 C   0  0  0  0  0  0  0  0  0  0  0  0
    8.0480  -36.0050  -35.0570 C   0  0  0  0  0  0  0  0  0  0  0  0
    7.3450  -33.7210  -33.1250 C   0  0  0  0  0  0  0  0  0  0  0  0
    4.2060  -34.0220  -36.5510 N   0  0  0  0  0  0  0  0  0  0  0  0
   10.4520  -32.7920  -29.9430 C   0  0  0  0  0  0  0  0  0  0  0  0
    8.9040  -35.5780  -33.9300 C   0  0  0  0  0  0  0  0  0  0  0  0
    7.2120  -32.5930  -32.2080 O   0  0  0  0  0  0  0  0  0  0  0  0
    6.4460  -34.1590  -34.2560 C   0  0  0  0  0  0  0  0  0  0  0  0
    2.9200  -33.6400  -34.8440 N   0  0  0  0  0  0  0  0  0  0  0  0
   11.0840  -33.8770  -32.4740 C   0  0  0  0  0  0  0  0  0  0  0  0
   12.0680  -35.4930  -34.2780 C   0  0  0  0  0  0  0  0  0  0  0  0
    6.8030  -35.1610  -35.2840 C   0  0  0  0  0  0  0  0  0  0  0  0
    9.7230  -33.6840  -32.1380 C   0  0  0  0  0  0  0  0  0  0  0  0
   11.2830  -34.4790  -33.6970 O   0  0  0  0  0  0  0  0  0  0  0  0
    2.0550  -33.7050  -35.9470 N   0  0  0  0  0  0  0  0  0  0  0  0
  1  9  1  0
  2  6  1  0
  2  1  1  0
  3 13  1  0
  3  2  1  0
  4 26  1  0
  5 12  1  0
  6 20  1  0
  7 11  1  0
  8 12  1  0
 10 18  1  0
 11 18  2  0
 11  5  1  0
 13 22  1  0
 14 17  1  0
 14 28  2  0
 15 19  1  0
 16  4  1  0
 16 20  1  0
 17 13  2  0
 18  8  1  0
 19  4  2  0
 21  3  1  0
 21 16  2  0
 23 26  1  0
 23  7  2  0
 24 27  1  0
 25 15  2  0
 25 21  1  0
 26 10  2  0
 27 23  1  0
 28 22  1  0
M  END
$$$$

     RDKit          3D

 32 36  0  0  0  0  0  0  0  0999 V2000
    2.6000  -34.5280  -36.5710 N   0  0  0  0  0  0  0  0  0  0  0  0
    1.7130  -34.1010  -39.2180 N   0  0  0  0  0  0  0  0  0  0  0  0
   11.0900  -34.9080  -33.5200 C   0  0  0  0  0  0  0  0  0  0  0  0
    8.8870  -33.9560  -33.3620 C   0  0  0  0  0  0  0  0  0  0  0  0
   13.5900  -33.2200  -29.0230 N   0  0  0  0  0  0  0  0  0  0  0  0
   -0.1150  -34.9950  -40.5350 C   0  0  0  0  0  0  0  0  0  0  0  0
   12.9030  -32.6480  -28.0320 C   0  0  0  0  0  0  0  0  0  0  0  0
   13.0510  -33.2100  -32.6440 C   0  0  0  0  0  0  0  0  0  0  0  0
    7.3870  -33.8880  -33.4520 C   0  0  0  0  0  0  0  0  0  0  0  0
    1.3520  -34.5810  -40.5320 C   0  0  0  0  0  0  0  0  0  0  0  0
   11.6600  -32.3930  -28.0360 C   0  0  0  0  0  0  0  0  0  0  0  0
   -0.2400  -36.0490  -39.2240 S   0  0  0  0  0  0  0  0  0  0  0  0
    4.7410  -34.3710  -36.1270 N   0  0  0  0  0  0  0  0  0  0  0  0
    9.8450  -35.1380  -33.7310 C   0  0  0  0  0  0  0  0  0  0  0  0
    5.6910  -34.3790  -34.7180 C   0  0  0  0  0  0  0  0  0  0  0  0
   12.2880  -33.3390  -31.8830 N   0  0  0  0  0  0  0  0  0  0  0  0
    9.9060  -32.9400  -32.8780 S   0  0  0  0  0  0  0  0  0  0  0  0
    0.9250  -34.0780  -38.0570 C   0  0  0  0  0  0  0  0  0  0  0  0
   12.7130  -33.5180  -29.7300 C   0  0  0  0  0  0  0  0  0  0  0  0
    5.2160  -33.3530  -33.9580 C   0  0  0  0  0  0  0  0  0  0  0  0
   11.5550  -33.5380  -33.2710 C   0  0  0  0  0  0  0  0  0  0  0  0
    7.3690  -36.3010  -34.7660 C   0  0  0  0  0  0  0  0  0  0  0  0
    6.4210  -32.9900  -33.1810 C   0  0  0  0  0  0  0  0  0  0  0  0
    3.4800  -34.2140  -35.8420 C   0  0  0  0  0  0  0  0  0  0  0  0
    6.8670  -34.9750  -34.3430 C   0  0  0  0  0  0  0  0  0  0  0  0
    2.3290  -34.2610  -37.9360 C   0  0  0  0  0  0  0  0  0  0  0  0
   14.0460  -34.0800  -33.6010 C   0  0  0  0  0  0  0  0  0  0  0  0
    3.4200  -33.2160  -34.3640 S   0  0  0  0  0  0  0  0  0  0  0  0
   12.1260  -33.8390  -30.7490 C   0  0  0  0  0  0  0  0  0  0  0  0
   -0.2700  -34.9230  -38.0480 C   0  0  0  0  0  0  0  0  0  0  0  0
   12.4030  -32.6380  -26.9980 O   0  0  0  0  0  0  0  0  0  0  0  0
    6.6400  -31.8260  -32.2490 C   0  0  0  0  0  0  0  0  0  0  0  0
  1 24  1  0
  2 10  1  0
  2 18  1  0
  2 26  1  0
  3 21  1  0
  4 17  2  0
  6 10  1  0
  6 12  1  0
  7  5  1  0
  7 31  1  0
  8 16  1  0
  9  4  1  0
  9 23  1  0
 11  7  1  0
 11 31  1  0
 12 30  1  0
 13 24  2  0
 13 15  1  0
 14  3  1  0
 14  4  1  0
 15 25  1  0
 15 20  2  0
 16 29  1  0
 18 30  1  0
 18 26  1  0
 19  5  1  0
 20 23  1  0
 21 16  1  0
 22 25  1  0
 23 32  1  0
 24 28  1  0
 25  9  2  0
 26  1  1  0
 27  8  1  0
 28 20  1  0
 29 19  1  0
M  END
$$$$

     RDKit          3D

 16 17  0  0  0  0  0  0  0  0999 V2000
    6.3390  -33.3630  -33.2390 C   0  0  0  0  0  0  0  0  0  0  0  0
    7.4260  -32.9460  -32.4240 C   0  0  0  0  0  0  0  0  0  0  0  0
    8.0360  -34.6330  -33.7820 C   0  0  0  0  0  0  0  0  0  0  0  0
   11.7510  -33.7390  -31.8760 N   0  0  0  0  0  0  0  0  0  0  0  0
    9.7170  -33.6950  -31.9040 C   0  0  0  0  0  0  0  0  0  0  0  0
    7.3650  -31.8300  -31.4490 C   0  0  0  0  0  0  0  0  0  0  0  0
    6.0730  -31.2640  -31.3720 C   0  0  0  0  0  0  0  0  0  0  0  0
    5.0610  -32.7440  -33.1340 C   0  0  0  0  0  0  0  0  0  0  0  0
    6.7510  -34.3340  -34.1570 N   0  0  0  0  0  0  0  0  0  0  0  0
   10.8550  -34.0120  -32.6280 N   0  0  0  0  0  0  0  0  0  0  0  0
   11.2160  -36.1220  -33.9290 C   0  0  0  0  0  0  0  0  0  0  0  0
   12.8300  -33.4060  -31.2590 C   0  0  0  0  0  0  0  0  0  0  0  0
    4.9790  -31.7980  -32.1180 C   0  0  0  0  0  0  0  0  0  0  0  0
   10.9920  -34.6480  -33.9830 C   0  0  0  0  0  0  0  0  0  0  0  0
    9.6410  -33.3320  -30.6960 O   0  0  0  0  0  0  0  0  0  0  0  0
    8.4180  -33.7970  -32.7970 C   0  0  0  0  0  0  0  0  0  0  0  0
  1  8  1  0
  1  2  1  0
  2  6  1  0
  3 16  1  0
  4 12  3  0
  5 15  2  0
  6  7  2  0
  8 13  2  0
  9  3  2  0
  9  1  1  0
 10  5  1  0
 10  4  1  0
 13  7  1  0
 14 11  1  0
 14 10  1  0
 16  2  2  0
 16  5  1  0
M  END
$$$$

     RDKit          3D

 16 17  0  0  0  0  0  0  0  0999 V2000
    5.6960  -32.6640  -33.5080 O   0  0  0  0  0  0  0  0  0  0  0  0
    8.9630  -33.0620  -31.7930 C   0  0  0  0  0  0  0  0  0  0  0  0
    4.5730  -33.4700  -33.4660 C   0  0  0  0  0  0  0  0  0  0  0  0
    8.0780  -34.4260  -33.4940 N   0  0  0  0  0  0  0  0  0  0  0  0
    8.8780  -32.1550  -30.7880 N   0  0  0  0  0  0  0  0  0  0  0  0
    9.5040  -35.2540  -35.4920 C   0  0  0  0  0  0  0  0  0  0  0  0
    7.8650  -33.3580  -32.6890 C   0  0  0  0  0  0  0  0  0  0  0  0
    5.6470  -30.9200  -31.2690 O   0  0  0  0  0  0  0  0  0  0  0  0
   11.3980  -33.8970  -32.8450 C   0  0  0  0  0  0  0  0  0  0  0  0
    9.3640  -34.9050  -33.0530 C   0  0  0  0  0  0  0  0  0  0  0  0
    9.9310  -35.7710  -34.0990 C   0  0  0  0  0  0  0  0  0  0  0  0
   10.1780  -33.9740  -32.1810 C   0  0  0  0  0  0  0  0  0  0  0  0
    6.6880  -31.6760  -31.4730 C   0  0  0  0  0  0  0  0  0  0  0  0
    7.7650  -31.4710  -30.6760 N   0  0  0  0  0  0  0  0  0  0  0  0
    6.7000  -32.6020  -32.5750 C   0  0  0  0  0  0  0  0  0  0  0  0
    9.0330  -37.0650  -34.0240 C   0  0  0  0  0  0  0  0  0  0  0  0
  1  3  1  0
  2  5  1  0
  4 10  1  0
  4  7  1  0
  5 14  2  0
  6 11  1  0
  7 15  1  0
  7  2  2  0
 10 11  1  0
 10 12  1  0
 11 16  1  0
 12  9  1  0
 12  2  1  0
 13  8  2  0
 13 14  1  0
 15  1  1  0
 15 13  1  0
M  END
$$$$
