
     RDKit          3D

 34 37  0  0  0  0  0  0  0  0999 V2000
  184.4570  178.6230  146.5540 O   0  0  0  0  0  0  0  0  0  0  0  0
  193.3791  177.8478  139.5993 O   0  0  0  0  0  0  0  0  0  0  0  0
  188.9058  178.3577  141.1066 N   0  0  0  0  0  0  0  0  0  0  0  0
  191.3692  176.8409  145.3626 C   0  0  0  0  0  0  0  0  0  0  0  0
  185.9547  178.2138  144.7336 C   0  0  0  0  0  0  0  0  0  0  0  0
  186.3981  178.2907  147.1463 C   0  0  0  0  0  0  0  0  0  0  0  0
  191.5698  177.3206  141.9364 C   0  0  0  0  0  0  0  0  0  0  0  0
  189.7663  175.5589  137.3307 C   0  0  0  0  0  0  0  0  0  0  0  0
  191.2548  178.0179  140.6811 C   0  0  0  0  0  0  0  0  0  0  0  0
  190.1638  178.1916  147.5834 C   0  0  0  0  0  0  0  0  0  0  0  0
  192.1588  177.5386  139.5850 C   0  0  0  0  0  0  0  0  0  0  0  0
  188.8086  177.8331  147.0044 C   0  0  0  0  0  0  0  0  0  0  0  0
  194.2576  176.3146  149.8131 C   0  0  0  0  0  0  0  0  0  0  0  0
  192.8596  178.6357  148.3645 C   0  0  0  0  0  0  0  0  0  0  0  0
  192.7548  176.4255  149.6112 C   0  0  0  0  0  0  0  0  0  0  0  0
  186.3926  178.2212  143.3624 C   0  0  0  0  0  0  0  0  0  0  0  0
  192.9188  176.5171  147.1885 O   0  0  0  0  0  0  0  0  0  0  0  0
  192.4078  177.1746  148.3249 C   0  0  0  0  0  0  0  0  0  0  0  0
  186.8012  178.4751  145.7294 C   0  0  0  0  0  0  0  0  0  0  0  0
  190.9621  176.9233  147.9213 C   0  0  0  0  0  0  0  0  0  0  0  0
  190.2554  176.4354  138.4262 C   0  0  0  0  0  0  0  0  0  0  0  0
  191.7985  176.7515  142.9757 C   0  0  0  0  0  0  0  0  0  0  0  0
  189.4066  176.9585  139.2561 N   0  0  0  0  0  0  0  0  0  0  0  0
  186.8395  178.2109  142.2434 C   0  0  0  0  0  0  0  0  0  0  0  0
  191.6188  176.2140  146.7381 C   0  0  0  0  0  0  0  0  0  0  0  0
  189.8013  177.8152  140.3408 C   0  0  0  0  0  0  0  0  0  0  0  0
  188.5457  178.7598  145.4746 S   0  0  0  0  0  0  0  0  0  0  0  0
  194.6790  174.8719  149.6236 C   0  0  0  0  0  0  0  0  0  0  0  0
  187.6879  178.2309  147.9543 C   0  0  0  0  0  0  0  0  0  0  0  0
  191.4631  174.6579  144.1485 C   0  0  0  0  0  0  0  0  0  0  0  0
  191.6518  176.7178  138.5329 N   0  0  0  0  0  0  0  0  0  0  0  0
  192.0417  176.0589  144.2429 C   0  0  0  0  0  0  0  0  0  0  0  0
  194.5298  175.4396  151.0184 C   0  0  0  0  0  0  0  0  0  0  0  0
  187.4734  178.1768  140.9269 C   0  0  0  0  0  0  0  0  0  0  0  0
  2 11  2  0
  5 19  2  3
  6 29  1  0
  7 22  3  0
  8 21  1  0
  9  7  1  0
 11  9  1  0
 12 10  1  0
 12 29  1  0
 13 33  1  0
 15 13  1  0
 16  5  1  0
 17 18  1  0
 18 14  1  0
 18 15  1  0
 19  6  1  0
 20 18  1  0
 20 10  1  0
 21 31  1  0
 21 23  2  0
 22 32  1  0
 23 26  1  0
 24 16  3  0
 25  4  1  0
 25 17  1  0
 25 20  1  0
 26  9  1  0
 26  3  2  3
 27 19  1  0
 27 12  1  0
 28 13  1  0
 28 33  1  0
 31 11  1  0
 32 30  1  0
 32  4  1  0
 34  3  1  0
 34 24  1  0
M  END
$$$$

     RDKit          3D

 34 37  0  0  0  0  0  0  0  0999 V2000
  192.6039  177.1002  137.8411 C   0  0  0  0  0  0  0  0  0  0  0  0
  185.8313  178.4849  143.7359 C   0  0  0  0  0  0  0  0  0  0  0  0
  190.7944  178.1399  145.9468 C   0  0  0  0  0  0  0  0  0  0  0  0
  193.1494  178.8300  139.4236 O   0  0  0  0  0  0  0  0  0  0  0  0
  191.3472  175.6240  139.8532 C   0  0  0  0  0  0  0  0  0  0  0  0
  183.4932  178.8681  144.2653 C   0  0  0  0  0  0  0  0  0  0  0  0
  181.1201  179.2559  144.8097 C   0  0  0  0  0  0  0  0  0  0  0  0
  192.0195  175.8669  137.5416 C   0  0  0  0  0  0  0  0  0  0  0  0
  187.1295  178.1566  144.1365 C   0  0  0  0  0  0  0  0  0  0  0  0
  186.3689  177.9288  146.4266 C   0  0  0  0  0  0  0  0  0  0  0  0
  191.8950  176.3162  143.6716 C   0  0  0  0  0  0  0  0  0  0  0  0
  185.0678  178.2565  146.0334 C   0  0  0  0  0  0  0  0  0  0  0  0
  184.2577  179.0880  142.0180 C   0  0  0  0  0  0  0  0  0  0  0  0
  190.7991  178.2179  144.6606 N   0  0  0  0  0  0  0  0  0  0  0  0
  192.5454  176.4818  142.5294 C   0  0  0  0  0  0  0  0  0  0  0  0
  187.3973  177.8790  145.4804 C   0  0  0  0  0  0  0  0  0  0  0  0
  190.5887  176.8821  146.7126 C   0  0  0  0  0  0  0  0  0  0  0  0
  191.8862  177.4013  141.5622 C   0  0  0  0  0  0  0  0  0  0  0  0
  184.7894  178.5364  144.6889 C   0  0  0  0  0  0  0  0  0  0  0  0
  182.4470  178.9250  145.1909 O   0  0  0  0  0  0  0  0  0  0  0  0
  190.1714  177.6459  142.1285 S   0  0  0  0  0  0  0  0  0  0  0  0
  191.9332  176.8624  140.1629 C   0  0  0  0  0  0  0  0  0  0  0  0
  190.8157  177.2853  148.1606 C   0  0  0  0  0  0  0  0  0  0  0  0
  185.5608  178.7623  142.3966 C   0  0  0  0  0  0  0  0  0  0  0  0
  190.6142  177.0724  143.7997 C   0  0  0  0  0  0  0  0  0  0  0  0
  191.8436  176.0088  149.6557 C   0  0  0  0  0  0  0  0  0  0  0  0
  191.3911  175.1289  138.5474 C   0  0  0  0  0  0  0  0  0  0  0  0
  192.6702  176.4659  150.8403 C   0  0  0  0  0  0  0  0  0  0  0  0
  190.7620  178.8124  148.2126 C   0  0  0  0  0  0  0  0  0  0  0  0
  190.9939  179.3286  146.8028 C   0  0  0  0  0  0  0  0  0  0  0  0
  192.0808  176.8523  148.5680 O   0  0  0  0  0  0  0  0  0  0  0  0
  183.2650  179.1335  142.9469 N   0  0  0  0  0  0  0  0  0  0  0  0
  192.2003  174.7032  149.3193 O   0  0  0  0  0  0  0  0  0  0  0  0
  192.5629  177.6005  139.1464 C   0  0  0  0  0  0  0  0  0  0  0  0
  1 34  4  0
  2  9  4  0
  2 19  4  0
  3 17  1  0
  3 30  1  0
  5 22  4  0
  6 19  4  0
  6 20  1  0
  7 20  1  0
  8 27  4  0
  8  1  4  0
  9 16  4  0
 11 25  1  0
 12 10  4  0
 13 24  4  0
 13 32  4  0
 14  3  2  3
 15 11  2  0
 16 10  4  0
 17 23  1  0
 18 22  1  0
 18 21  1  0
 18 15  1  0
 19 12  4  0
 21 25  1  0
 23 31  1  0
 23 29  1  0
 24  2  4  0
 25 14  1  0
 26 28  1  0
 27  5  4  0
 30 29  1  0
 31 26  1  0
 32  6  4  0
 33 26  1  0
 34 22  4  0
 34  4  1  0
M  END
$$$$

     RDKit          3D

 34 36  0  0  0  0  0  0  0  0999 V2000
  189.2623  178.2868  148.5421 C   0  0  0  0  0  0  0  0  0  0  0  0
  192.6944  175.4262  148.5496 C   0  0  0  0  0  0  0  0  0  0  0  0
  190.4279  177.6293  145.4078 N   0  0  0  0  0  0  0  0  0  0  0  0
  186.7981  177.9095  146.3721 C   0  0  0  0  0  0  0  0  0  0  0  0
  192.3820  178.6413  140.4551 C   0  0  0  0  0  0  0  0  0  0  0  0
  184.0341  178.7419  142.2599 C   0  0  0  0  0  0  0  0  0  0  0  0
  189.9842  178.7815  141.0182 O   0  0  0  0  0  0  0  0  0  0  0  0
  193.6334  175.8479  149.6048 C   0  0  0  0  0  0  0  0  0  0  0  0
  189.2503  177.6703  146.1867 N   0  0  0  0  0  0  0  0  0  0  0  0
  190.7666  176.6308  147.5265 C   0  0  0  0  0  0  0  0  0  0  0  0
  189.3921  177.1516  147.5375 C   0  0  0  0  0  0  0  0  0  0  0  0
  189.7448  177.4094  141.2275 C   0  0  0  0  0  0  0  0  0  0  0  0
  190.9129  178.9981  145.2669 C   0  0  0  0  0  0  0  0  0  0  0  0
  194.7951  175.3625  149.6647 O   0  0  0  0  0  0  0  0  0  0  0  0
  186.5938  178.2940  143.6203 C   0  0  0  0  0  0  0  0  0  0  0  0
  193.2448  176.7934  150.5468 O   0  0  0  0  0  0  0  0  0  0  0  0
  192.9583  172.8954  145.8066 C   0  0  0  0  0  0  0  0  0  0  0  0
  191.3303  175.9971  148.5592 C   0  0  0  0  0  0  0  0  0  0  0  0
  190.7179  179.4871  143.8422 C   0  0  0  0  0  0  0  0  0  0  0  0
  191.2975  176.9396  139.2632 C   0  0  0  0  0  0  0  0  0  0  0  0
  192.3469  177.1989  140.2406 N   0  0  0  0  0  0  0  0  0  0  0  0
  185.5421  178.1181  145.7948 C   0  0  0  0  0  0  0  0  0  0  0  0
  185.4273  178.3145  144.4001 C   0  0  0  0  0  0  0  0  0  0  0  0
  184.4245  178.1263  146.6212 O   0  0  0  0  0  0  0  0  0  0  0  0
  189.9737  176.6032  139.9500 C   0  0  0  0  0  0  0  0  0  0  0  0
  192.1836  173.9061  146.6252 C   0  0  0  0  0  0  0  0  0  0  0  0
  191.4194  176.9243  146.2228 C   0  0  0  0  0  0  0  0  0  0  0  0
  193.0750  174.4866  147.6725 C   0  0  0  0  0  0  0  0  0  0  0  0
  191.3006  179.0985  141.4426 C   0  0  0  0  0  0  0  0  0  0  0  0
  184.1191  178.5396  143.7360 C   0  0  0  0  0  0  0  0  0  0  0  0
  191.6186  178.7197  142.8911 C   0  0  0  0  0  0  0  0  0  0  0  0
  187.9591  177.8935  145.5869 C   0  0  0  0  0  0  0  0  0  0  0  0
  183.0510  178.5649  144.4029 O   0  0  0  0  0  0  0  0  0  0  0  0
  187.8433  178.0852  144.2054 C   0  0  0  0  0  0  0  0  0  0  0  0
  2 18  1  0
  2  8  1  0
  3 27  1  0
  3  9  1  0
  5 29  1  0
  6 30  1  0
  7 29  1  0
  8 14  2  0
  8 16  1  0
  9 11  1  0
 10 11  1  0
 10 18  2  3
 11  1  1  0
 12  7  1  0
 13  3  1  0
 15 34  4  0
 15 23  4  0
 17 26  1  0
 19 13  1  0
 20 25  1  0
 20 21  1  0
 21  5  1  0
 22  4  4  0
 22 24  1  0
 23 22  4  0
 25 12  1  0
 26 28  1  0
 27 10  1  0
 28  2  2  3
 29 31  1  0
 30 23  1  0
 30 33  2  0
 31 19  1  0
 32  9  1  0
 32  4  4  0
 34 32  4  0
M  END
$$$$

     RDKit          3D

 34 39  0  0  0  0  0  0  0  0999 V2000
  187.3322  178.8456  146.5468 C   0  0  0  0  0  0  0  0  0  0  0  0
  187.6502  179.2383  144.2012 C   0  0  0  0  0  0  0  0  0  0  0  0
  190.5760  176.5349  140.1882 N   0  0  0  0  0  0  0  0  0  0  0  0
  189.1329  177.6007  145.4528 C   0  0  0  0  0  0  0  0  0  0  0  0
  190.7183  176.0945  144.4842 C   0  0  0  0  0  0  0  0  0  0  0  0
  185.8104  180.1431  145.3402 N   0  0  0  0  0  0  0  0  0  0  0  0
  192.2149  176.8784  150.3665 C   0  0  0  0  0  0  0  0  0  0  0  0
  192.8326  175.6415  150.5647 C   0  0  0  0  0  0  0  0  0  0  0  0
  186.5238  179.9941  144.2275 N   0  0  0  0  0  0  0  0  0  0  0  0
  189.1878  176.7835  143.1250 C   0  0  0  0  0  0  0  0  0  0  0  0
  192.0502  178.3347  138.5374 O   0  0  0  0  0  0  0  0  0  0  0  0
  191.4944  176.1756  148.1495 C   0  0  0  0  0  0  0  0  0  0  0  0
  190.6139  176.4510  138.7619 C   0  0  0  0  0  0  0  0  0  0  0  0
  191.3062  177.4862  137.9793 C   0  0  0  0  0  0  0  0  0  0  0  0
  188.0431  178.5310  145.3648 C   0  0  0  0  0  0  0  0  0  0  0  0
  192.7916  174.6725  149.5596 C   0  0  0  0  0  0  0  0  0  0  0  0
  189.8872  175.5509  141.0082 C   0  0  0  0  0  0  0  0  0  0  0  0
  191.0130  175.4630  143.2939 C   0  0  0  0  0  0  0  0  0  0  0  0
  186.2150  179.6089  146.4883 N   0  0  0  0  0  0  0  0  0  0  0  0
  190.1219  176.6959  135.9898 C   0  0  0  0  0  0  0  0  0  0  0  0
  189.6562  177.2754  146.7428 C   0  0  0  0  0  0  0  0  0  0  0  0
  190.0675  175.3301  136.6793 C   0  0  0  0  0  0  0  0  0  0  0  0
  191.5546  177.1451  149.1641 C   0  0  0  0  0  0  0  0  0  0  0  0
  187.7929  178.4246  147.7892 C   0  0  0  0  0  0  0  0  0  0  0  0
  188.5079  179.3730  143.0734 N   0  0  0  0  0  0  0  0  0  0  0  0
  191.3434  175.8642  145.6982 C   0  0  0  0  0  0  0  0  0  0  0  0
  192.1299  174.9397  148.3578 C   0  0  0  0  0  0  0  0  0  0  0  0
  190.8196  176.4599  146.8538 C   0  0  0  0  0  0  0  0  0  0  0  0
  190.0202  175.9160  142.4437 C   0  0  0  0  0  0  0  0  0  0  0  0
  192.2625  177.9124  151.4324 C   0  0  0  0  0  0  0  0  0  0  0  0
  189.6545  176.9163  144.3813 N   0  0  0  0  0  0  0  0  0  0  0  0
  188.9590  177.6789  147.8872 C   0  0  0  0  0  0  0  0  0  0  0  0
  189.9996  175.4883  138.1357 N   0  0  0  0  0  0  0  0  0  0  0  0
  191.1304  177.5048  136.5946 O   0  0  0  0  0  0  0  0  0  0  0  0
  1 19  4  0
  1 24  4  0
  2  9  4  0
  2 15  4  0
  3 17  1  0
  4 15  4  0
  4 21  4  0
  5 31  4  0
  5 26  4  0
  6 19  4  0
  7 30  1  0
  8  7  4  0
  9  6  4  0
 10 31  4  0
 12 27  4  0
 12 23  4  0
 13  3  1  0
 14 13  1  0
 14 11  2  0
 15  1  4  0
 16  8  4  0
 17 29  1  0
 18  5  4  0
 20 22  1  0
 20 34  1  0
 21 32  4  0
 22 33  1  0
 23  7  4  0
 25  2  1  0
 26 28  4  0
 27 16  4  0
 28 21  4  0
 28 12  1  0
 29 18  4  0
 29 10  4  0
 31  4  4  0
 32 24  4  0
 33 13  2  0
 34 14  1  0
M  END
$$$$

     RDKit          3D

 34 38  0  0  0  0  0  0  0  0999 V2000
  184.0947  176.1684  145.3357 C   0  0  0  0  0  0  0  0  0  0  0  0
  196.3108  177.6053  142.7355 O   0  0  0  0  0  0  0  0  0  0  0  0
  193.2843  178.3574  142.6013 N   0  0  0  0  0  0  0  0  0  0  0  0
  192.2160  173.3683  147.6760 O   0  0  0  0  0  0  0  0  0  0  0  0
  194.1162  177.4540  141.8185 C   0  0  0  0  0  0  0  0  0  0  0  0
  190.4772  178.4351  144.8028 C   0  0  0  0  0  0  0  0  0  0  0  0
  189.2221  178.8600  145.5042 C   0  0  0  0  0  0  0  0  0  0  0  0
  185.6921  177.6947  145.9974 N   0  0  0  0  0  0  0  0  0  0  0  0
  186.3622  175.3450  145.8192 C   0  0  0  0  0  0  0  0  0  0  0  0
  191.1161  177.2359  145.4304 C   0  0  0  0  0  0  0  0  0  0  0  0
  185.5501  176.4702  145.1982 C   0  0  0  0  0  0  0  0  0  0  0  0
  191.5296  175.4838  146.5908 C   0  0  0  0  0  0  0  0  0  0  0  0
  184.4815  178.0932  146.5852 N   0  0  0  0  0  0  0  0  0  0  0  0
  191.4065  174.4971  147.6667 C   0  0  0  0  0  0  0  0  0  0  0  0
  183.4991  175.1793  144.8322 O   0  0  0  0  0  0  0  0  0  0  0  0
  188.0738  180.4143  146.9646 C   0  0  0  0  0  0  0  0  0  0  0  0
  186.8893  178.4816  146.0902 C   0  0  0  0  0  0  0  0  0  0  0  0
  191.0270  179.3205  142.7163 C   0  0  0  0  0  0  0  0  0  0  0  0
  191.6541  176.1052  143.3934 C   0  0  0  0  0  0  0  0  0  0  0  0
  183.4810  177.1927  146.1533 C   0  0  0  0  0  0  0  0  0  0  0  0
  186.9088  179.6482  146.8678 C   0  0  0  0  0  0  0  0  0  0  0  0
  191.0391  177.2894  142.6077 C   0  0  0  0  0  0  0  0  0  0  0  0
  193.7990  179.5989  142.4191 O   0  0  0  0  0  0  0  0  0  0  0  0
  191.9518  178.3437  141.9959 C   0  0  0  0  0  0  0  0  0  0  0  0
  182.3472  177.0629  146.7568 N   0  0  0  0  0  0  0  0  0  0  0  0
  192.3611  175.3500  145.6093 N   0  0  0  0  0  0  0  0  0  0  0  0
  195.2428  176.9460  142.6501 C   0  0  0  0  0  0  0  0  0  0  0  0
  195.1029  175.7603  143.3580 O   0  0  0  0  0  0  0  0  0  0  0  0
  189.2295  180.0192  146.2857 C   0  0  0  0  0  0  0  0  0  0  0  0
  192.1964  176.5106  144.7477 C   0  0  0  0  0  0  0  0  0  0  0  0
  190.2271  178.2758  143.3538 N   0  0  0  0  0  0  0  0  0  0  0  0
  190.7189  176.6479  146.5089 N   0  0  0  0  0  0  0  0  0  0  0  0
  188.0519  178.0944  145.4090 C   0  0  0  0  0  0  0  0  0  0  0  0
  190.5646  174.6675  148.5865 O   0  0  0  0  0  0  0  0  0  0  0  0
  1 11  1  0
  1 20  1  0
  2 27  2  0
  3 23  1  0
  5  3  1  0
  6  7  1  0
  6 10  1  0
  7 29  4  0
  8 13  1  0
  8 17  1  0
 10 32  2  0
 11  9  1  0
 11  8  1  0
 12 14  1  0
 14 34  2  0
 14  4  1  0
 15  1  2  0
 17 21  4  0
 20 25  2  0
 20 13  1  0
 21 16  4  0
 22 31  1  0
 22 19  1  0
 24  3  1  0
 24 18  1  0
 24 22  1  0
 26 12  2  0
 27  5  1  0
 27 28  1  0
 29 16  4  0
 30 19  1  0
 30 10  1  0
 30 26  1  0
 31 18  1  0
 31  6  1  0
 32 12  1  0
 33 17  4  0
 33  7  4  0
M  END
$$$$

     RDKit          3D

 34 39  0  0  0  0  0  0  0  0999 V2000
  186.5060  178.3726  142.9994 C   0  0  0  0  0  0  0  0  0  0  0  0
  190.9230  177.5500  145.7981 N   0  0  0  0  0  0  0  0  0  0  0  0
  195.0123  175.7435  148.5178 N   0  0  0  0  0  0  0  0  0  0  0  0
  186.4388  179.2864  145.2858 C   0  0  0  0  0  0  0  0  0  0  0  0
  188.3738  175.9941  143.6395 N   0  0  0  0  0  0  0  0  0  0  0  0
  195.6509  177.0028  149.0056 C   0  0  0  0  0  0  0  0  0  0  0  0
  185.4146  178.8437  147.1633 N   0  0  0  0  0  0  0  0  0  0  0  0
  189.8215  175.8506  143.6539 C   0  0  0  0  0  0  0  0  0  0  0  0
  187.8725  178.0462  142.4232 C   0  0  0  0  0  0  0  0  0  0  0  0
  188.7975  175.3716  140.3786 O   0  0  0  0  0  0  0  0  0  0  0  0
  186.6822  178.4147  147.3053 C   0  0  0  0  0  0  0  0  0  0  0  0
  190.2584  174.8200  144.6491 C   0  0  0  0  0  0  0  0  0  0  0  0
  192.6527  176.4911  147.5915 S   0  0  0  0  0  0  0  0  0  0  0  0
  185.2667  179.3577  145.9491 N   0  0  0  0  0  0  0  0  0  0  0  0
  190.2512  175.5260  142.2468 C   0  0  0  0  0  0  0  0  0  0  0  0
  195.3124  178.2750  148.2273 C   0  0  0  0  0  0  0  0  0  0  0  0
  188.7047  178.4217  145.7267 C   0  0  0  0  0  0  0  0  0  0  0  0
  189.6682  177.7427  146.4630 C   0  0  0  0  0  0  0  0  0  0  0  0
  190.3356  172.6856  145.6219 C   0  0  0  0  0  0  0  0  0  0  0  0
  188.4015  177.2186  148.6138 C   0  0  0  0  0  0  0  0  0  0  0  0
  196.0482  179.4522  148.8326 C   0  0  0  0  0  0  0  0  0  0  0  0
  191.3365  173.6613  146.5578 S   0  0  0  0  0  0  0  0  0  0  0  0
  189.2213  176.2271  141.3945 C   0  0  0  0  0  0  0  0  0  0  0  0
  187.1342  177.7570  148.4316 C   0  0  0  0  0  0  0  0  0  0  0  0
  186.5867  179.6360  143.8402 C   0  0  0  0  0  0  0  0  0  0  0  0
  194.4992  175.2966  146.1273 N   0  0  0  0  0  0  0  0  0  0  0  0
  189.8186  173.4861  144.6075 C   0  0  0  0  0  0  0  0  0  0  0  0
  188.0570  176.5388  142.3225 C   0  0  0  0  0  0  0  0  0  0  0  0
  194.1527  175.9150  147.3714 C   0  0  0  0  0  0  0  0  0  0  0  0
  191.1163  175.0987  145.7143 C   0  0  0  0  0  0  0  0  0  0  0  0
  187.3993  178.7003  146.0843 C   0  0  0  0  0  0  0  0  0  0  0  0
  191.8214  176.4109  145.9806 C   0  0  0  0  0  0  0  0  0  0  0  0
  189.4949  177.2085  147.7470 C   0  0  0  0  0  0  0  0  0  0  0  0
  196.3905  176.0992  148.1350 C   0  0  0  0  0  0  0  0  0  0  0  0
  1 25  1  0
  2 18  1  0
  2 32  1  0
  3 34  1  0
  3  6  1  0
  4 31  4  0
  4 14  4  0
  5  8  1  0
  6 16  1  0
  7 11  4  0
  8 15  1  0
  8 12  1  0
  9  1  1  0
 11 24  4  0
 12 30  4  0
 13 29  2  3
 14  7  4  0
 17 31  4  0
 17 18  4  0
 18 33  4  0
 19 22  4  0
 20 24  4  0
 21 16  1  0
 23 10  1  0
 23 28  1  0
 23 15  1  0
 25  4  1  0
 26 29  1  0
 27 12  4  0
 27 19  4  0
 28  9  1  0
 28  5  1  0
 29  3  1  0
 30 22  4  0
 30 32  1  0
 31 11  1  0
 32 13  1  0
 33 20  4  0
 34  6  1  0
M  END
$$$$

     RDKit          3D

 34 37  0  0  0  0  0  0  0  0999 V2000
  186.8952  177.4810  146.3284 C   0  0  0  0  0  0  0  0  0  0  0  0
  195.1852  176.9300  141.3779 C   0  0  0  0  0  0  0  0  0  0  0  0
  185.7446  179.7330  142.3789 C   0  0  0  0  0  0  0  0  0  0  0  0
  196.1972  177.4503  140.5654 O   0  0  0  0  0  0  0  0  0  0  0  0
  189.4334  175.0836  147.7050 N   0  0  0  0  0  0  0  0  0  0  0  0
  193.4893  178.5332  141.0779 C   0  0  0  0  0  0  0  0  0  0  0  0
  187.2817  175.3095  143.9139 O   0  0  0  0  0  0  0  0  0  0  0  0
  192.6569  178.5643  142.3487 C   0  0  0  0  0  0  0  0  0  0  0  0
  185.8395  178.7573  146.6858 S   0  0  0  0  0  0  0  0  0  0  0  0
  188.0489  176.3857  144.3605 C   0  0  0  0  0  0  0  0  0  0  0  0
  189.0947  175.8953  145.3839 C   0  0  0  0  0  0  0  0  0  0  0  0
  193.8873  177.1682  140.7644 N   0  0  0  0  0  0  0  0  0  0  0  0
  197.1940  176.1332  140.1786 P   0  0  0  0  0  0  0  0  0  0  0  0
  184.9826  180.5297  143.2554 C   0  0  0  0  0  0  0  0  0  0  0  0
  191.1265  177.0418  144.4117 C   0  0  0  0  0  0  0  0  0  0  0  0
  191.3711  177.9143  142.1180 N   0  0  0  0  0  0  0  0  0  0  0  0
  185.7484  179.9983  141.0510 F   0  0  0  0  0  0  0  0  0  0  0  0
  188.4309  175.4774  146.7227 C   0  0  0  0  0  0  0  0  0  0  0  0
  186.4711  178.4274  144.2572 C   0  0  0  0  0  0  0  0  0  0  0  0
  198.4958  176.6829  139.2504 O   0  0  0  0  0  0  0  0  0  0  0  0
  186.5021  178.6651  142.8840 C   0  0  0  0  0  0  0  0  0  0  0  0
  196.4149  175.1115  139.3800 O   0  0  0  0  0  0  0  0  0  0  0  0
  190.1834  176.9505  145.6031 C   0  0  0  0  0  0  0  0  0  0  0  0
  185.7054  179.2383  145.0789 C   0  0  0  0  0  0  0  0  0  0  0  0
  187.1530  177.4329  144.9617 C   0  0  0  0  0  0  0  0  0  0  0  0
  184.9730  180.2719  144.5955 N   0  0  0  0  0  0  0  0  0  0  0  0
  187.5273  176.5550  147.2728 C   0  0  0  0  0  0  0  0  0  0  0  0
  190.3104  173.1253  148.7704 C   0  0  0  0  0  0  0  0  0  0  0  0
  189.6324  173.6512  147.5666 C   0  0  0  0  0  0  0  0  0  0  0  0
  187.2630  176.6152  148.5032 O   0  0  0  0  0  0  0  0  0  0  0  0
  191.0124  173.3763  147.5786 O   0  0  0  0  0  0  0  0  0  0  0  0
  190.5634  177.9645  143.3352 C   0  0  0  0  0  0  0  0  0  0  0  0
  197.7850  175.4156  141.5932 O   0  0  0  0  0  0  0  0  0  0  0  0
  190.4411  179.2652  143.8011 F   0  0  0  0  0  0  0  0  0  0  0  0
  1  9  4  0
  1 27  1  0
  2 12  1  0
  2  4  1  0
  3 21  4  0
  3 14  4  0
  6  8  1  0
  8 16  1  0
 10  7  1  0
 10 11  1  0
 10 25  1  0
 11 23  1  0
 11 18  1  0
 12  6  1  0
 13 33  1  0
 13  4  1  0
 13 20  1  0
 14 26  4  0
 15 23  1  0
 16 32  1  0
 17  3  1  0
 18 27  1  0
 18  5  1  0
 19 25  4  0
 19 24  4  0
 21 19  4  0
 22 13  2  0
 24  9  4  0
 25  1  4  0
 26 24  4  0
 27 30  2  0
 28 31  1  0
 29  5  1  0
 29 28  1  0
 29 31  1  0
 32 34  1  0
 32 15  1  0
M  END
$$$$

     RDKit          3D

 34 38  0  0  0  0  0  0  0  0999 V2000
  184.6020  176.9626  143.3106 N   0  0  0  0  0  0  0  0  0  0  0  0
  194.6099  177.4188  139.9259 C   0  0  0  0  0  0  0  0  0  0  0  0
  189.0732  177.0706  145.9605 C   0  0  0  0  0  0  0  0  0  0  0  0
  192.6598  178.6189  143.9081 C   0  0  0  0  0  0  0  0  0  0  0  0
  191.0664  178.2951  140.2423 C   0  0  0  0  0  0  0  0  0  0  0  0
  187.7435  177.0510  145.4675 C   0  0  0  0  0  0  0  0  0  0  0  0
  190.8313  176.5530  147.7492 C   0  0  0  0  0  0  0  0  0  0  0  0
  186.3217  177.2518  147.5235 N   0  0  0  0  0  0  0  0  0  0  0  0
  184.1076  177.1922  145.4732 N   0  0  0  0  0  0  0  0  0  0  0  0
  193.0667  177.2050  138.1344 N   0  0  0  0  0  0  0  0  0  0  0  0
  192.7461  177.3157  144.7204 C   0  0  0  0  0  0  0  0  0  0  0  0
  190.1713  177.6020  142.4671 C   0  0  0  0  0  0  0  0  0  0  0  0
  186.5171  177.1368  146.1920 C   0  0  0  0  0  0  0  0  0  0  0  0
  191.5857  177.2449  145.6955 C   0  0  0  0  0  0  0  0  0  0  0  0
  187.3487  176.8910  143.7874 S   0  0  0  0  0  0  0  0  0  0  0  0
  185.7149  176.9623  144.0504 C   0  0  0  0  0  0  0  0  0  0  0  0
  192.3119  177.6293  140.4888 N   0  0  0  0  0  0  0  0  0  0  0  0
  190.8457  178.8429  139.1298 O   0  0  0  0  0  0  0  0  0  0  0  0
  187.2078  177.1755  148.5342 C   0  0  0  0  0  0  0  0  0  0  0  0
  183.6310  177.1048  144.2229 N   0  0  0  0  0  0  0  0  0  0  0  0
  190.3342  176.3566  142.3321 O   0  0  0  0  0  0  0  0  0  0  0  0
  193.3469  177.4167  139.5240 C   0  0  0  0  0  0  0  0  0  0  0  0
  191.6940  176.1596  146.6404 N   0  0  0  0  0  0  0  0  0  0  0  0
  188.5652  176.9417  148.4270 C   0  0  0  0  0  0  0  0  0  0  0  0
  192.0278  176.3978  137.6191 N   0  0  0  0  0  0  0  0  0  0  0  0
  190.2428  177.1428  144.9609 C   0  0  0  0  0  0  0  0  0  0  0  0
  190.1117  178.4329  141.3024 N   0  0  0  0  0  0  0  0  0  0  0  0
  190.1315  178.2264  143.8426 C   0  0  0  0  0  0  0  0  0  0  0  0
  191.5102  175.1761  139.5613 O   0  0  0  0  0  0  0  0  0  0  0  0
  190.3161  174.6630  137.6788 O   0  0  0  0  0  0  0  0  0  0  0  0
  191.2641  179.2715  143.9345 C   0  0  0  0  0  0  0  0  0  0  0  0
  189.4015  176.8401  147.3276 C   0  0  0  0  0  0  0  0  0  0  0  0
  185.4364  177.0987  145.3235 C   0  0  0  0  0  0  0  0  0  0  0  0
  191.2783  175.4128  138.3472 C   0  0  0  0  0  0  0  0  0  0  0  0
  1 16  4  0
  1 20  4  0
  3 32  4  0
  4 11  1  0
  5 17  1  0
  5 27  1  0
  6  3  4  0
  6 13  4  0
  8 19  4  0
 10 22  1  0
 12 21  2  0
 13  8  4  0
 14 11  1  0
 14 23  1  0
 15 16  4  0
 15  6  4  0
 16 33  4  0
 18  5  2  0
 19 24  4  0
 20  9  4  0
 22  2  2  0
 22 17  1  0
 23  7  1  0
 25 10  1  0
 26 14  1  0
 26  3  1  0
 27 12  1  0
 28 12  1  0
 28 26  1  0
 29 34  2  0
 31  4  1  0
 31 28  1  0
 32  7  1  0
 32 24  4  0
 33  9  4  0
 33 13  4  0
 34 30  1  0
 34 25  1  0
M  END
$$$$

     RDKit          3D

 34 37  0  0  0  0  0  0  0  0999 V2000
  187.7212  177.8291  140.0325 C   0  0  0  0  0  0  0  0  0  0  0  0
  193.2508  176.6053  149.9106 C   0  0  0  0  0  0  0  0  0  0  0  0
  188.6455  178.0575  146.6348 C   0  0  0  0  0  0  0  0  0  0  0  0
  184.4829  179.2525  140.9789 C   0  0  0  0  0  0  0  0  0  0  0  0
  186.5996  178.4528  139.7100 C   0  0  0  0  0  0  0  0  0  0  0  0
  195.9597  173.6387  152.6343 C   0  0  0  0  0  0  0  0  0  0  0  0
  186.0025  177.9703  143.3684 C   0  0  0  0  0  0  0  0  0  0  0  0
  185.8170  178.5824  140.9286 C   0  0  0  0  0  0  0  0  0  0  0  0
  190.4824  178.3198  145.0605 C   0  0  0  0  0  0  0  0  0  0  0  0
  191.3864  178.3529  146.1261 C   0  0  0  0  0  0  0  0  0  0  0  0
  188.8114  177.5209  139.0624 C   0  0  0  0  0  0  0  0  0  0  0  0
  191.8943  178.2563  148.5721 C   0  0  0  0  0  0  0  0  0  0  0  0
  194.9769  173.6154  151.4830 C   0  0  0  0  0  0  0  0  0  0  0  0
  184.1728  177.7290  144.9435 C   0  0  0  0  0  0  0  0  0  0  0  0
  192.3200  176.8974  148.8669 N   0  0  0  0  0  0  0  0  0  0  0  0
  188.8314  175.2479  138.5128 C   0  0  0  0  0  0  0  0  0  0  0  0
  190.9260  178.2453  147.4428 C   0  0  0  0  0  0  0  0  0  0  0  0
  186.3893  177.8820  145.7753 C   0  0  0  0  0  0  0  0  0  0  0  0
  189.5590  178.0917  147.6964 C   0  0  0  0  0  0  0  0  0  0  0  0
  193.6487  175.2181  150.1695 C   0  0  0  0  0  0  0  0  0  0  0  0
  188.3544  176.5501  138.0807 N   0  0  0  0  0  0  0  0  0  0  0  0
  193.1674  174.2859  149.4691 O   0  0  0  0  0  0  0  0  0  0  0  0
  187.2710  177.9115  146.8632 C   0  0  0  0  0  0  0  0  0  0  0  0
  183.4165  178.3333  140.4153 C   0  0  0  0  0  0  0  0  0  0  0  0
  189.1147  178.1737  145.3075 C   0  0  0  0  0  0  0  0  0  0  0  0
  185.0509  177.7537  145.9786 N   0  0  0  0  0  0  0  0  0  0  0  0
  194.5588  174.9402  151.1912 O   0  0  0  0  0  0  0  0  0  0  0  0
  187.7869  177.5074  141.4855 C   0  0  0  0  0  0  0  0  0  0  0  0
  193.7326  177.5357  150.6116 O   0  0  0  0  0  0  0  0  0  0  0  0
  186.4762  178.0493  141.9598 C   0  0  0  0  0  0  0  0  0  0  0  0
  188.2389  178.1408  144.2698 N   0  0  0  0  0  0  0  0  0  0  0  0
  186.7799  177.7985  148.1615 O   0  0  0  0  0  0  0  0  0  0  0  0
  186.8983  177.9930  144.4599 C   0  0  0  0  0  0  0  0  0  0  0  0
  184.6324  177.8346  143.6313 C   0  0  0  0  0  0  0  0  0  0  0  0
  1 28  1  0
  2 29  2  0
  2 20  1  0
  3 23  4  0
  3 19  4  0
  5  1  2  0
  5  8  1  0
  7 34  4  0
  7 33  4  0
  8  4  1  0
  8 30  2  0
  9 10  4  0
  9 25  4  0
 10 17  4  0
 11  1  1  0
 12 15  1  0
 13  6  1  0
 14 26  4  0
 15  2  1  0
 16 21  1  0
 17 12  1  0
 17 19  4  0
 18 26  4  0
 18 23  4  0
 20 27  1  0
 21 11  1  0
 22 20  2  0
 23 32  1  0
 24  4  1  0
 25  3  4  0
 27 13  1  0
 28 30  1  0
 30  7  1  0
 31 33  4  0
 31 25  4  0
 33 18  4  0
 34 14  4  0
M  END
$$$$

     RDKit          3D

 34 36  0  0  0  0  0  0  0  0999 V2000
  187.8598  176.0475  144.3413 C   0  0  0  0  0  0  0  0  0  0  0  0
  184.9441  177.7619  147.5296 O   0  0  0  0  0  0  0  0  0  0  0  0
  189.0499  178.1109  148.8693 C   0  0  0  0  0  0  0  0  0  0  0  0
  192.7384  179.5827  142.2286 C   0  0  0  0  0  0  0  0  0  0  0  0
  188.3611  179.1488  147.9546 C   0  0  0  0  0  0  0  0  0  0  0  0
  190.3357  176.8206  145.9108 C   0  0  0  0  0  0  0  0  0  0  0  0
  183.5081  177.3440  143.0477 C   0  0  0  0  0  0  0  0  0  0  0  0
  188.8420  178.8786  146.5093 C   0  0  0  0  0  0  0  0  0  0  0  0
  195.2950  173.3342  138.4418 C   0  0  0  0  0  0  0  0  0  0  0  0
  190.7367  175.8127  146.7933 C   0  0  0  0  0  0  0  0  0  0  0  0
  191.8903  178.5894  142.9494 C   0  0  0  0  0  0  0  0  0  0  0  0
  185.1314  177.2789  146.3834 C   0  0  0  0  0  0  0  0  0  0  0  0
  191.5020  176.3714  143.7594 C   0  0  0  0  0  0  0  0  0  0  0  0
  189.0979  175.7991  144.0118 C   0  0  0  0  0  0  0  0  0  0  0  0
  186.6326  176.3068  144.6915 C   0  0  0  0  0  0  0  0  0  0  0  0
  184.3874  177.0629  144.0035 C   0  0  0  0  0  0  0  0  0  0  0  0
  194.9983  175.7034  137.8569 C   0  0  0  0  0  0  0  0  0  0  0  0
  192.7677  179.2953  140.7359 C   0  0  0  0  0  0  0  0  0  0  0  0
  189.8261  177.8030  146.7232 C   0  0  0  0  0  0  0  0  0  0  0  0
  194.7067  176.4718  139.0324 N   0  0  0  0  0  0  0  0  0  0  0  0
  193.0757  178.2638  137.8540 S   0  0  0  0  0  0  0  0  0  0  0  0
  186.2973  176.3701  146.1477 C   0  0  0  0  0  0  0  0  0  0  0  0
  190.1977  176.7308  144.4191 C   0  0  0  0  0  0  0  0  0  0  0  0
  182.3789  178.1754  143.3008 N   0  0  0  0  0  0  0  0  0  0  0  0
  193.8266  177.5991  139.1597 C   0  0  0  0  0  0  0  0  0  0  0  0
  185.5388  176.1589  143.6821 C   0  0  0  0  0  0  0  0  0  0  0  0
  192.2795  177.3614  143.0794 N   0  0  0  0  0  0  0  0  0  0  0  0
  193.6334  178.1564  140.4629 N   0  0  0  0  0  0  0  0  0  0  0  0
  194.4138  175.9251  136.7639 O   0  0  0  0  0  0  0  0  0  0  0  0
  195.9811  174.5897  137.9423 C   0  0  0  0  0  0  0  0  0  0  0  0
  190.4518  176.2088  148.0601 N   0  0  0  0  0  0  0  0  0  0  0  0
  191.9720  175.1712  143.8670 N   0  0  0  0  0  0  0  0  0  0  0  0
  189.9409  177.4233  147.9719 N   0  0  0  0  0  0  0  0  0  0  0  0
  184.2051  177.5689  145.3326 N   0  0  0  0  0  0  0  0  0  0  0  0
  1 15  2  0
  4 11  1  0
  5  3  1  0
  6 10  4  0
  6 19  4  0
  7 24  1  0
  7 16  2  3
  8  5  1  0
  9 30  1  0
 10 31  4  0
 11 27  2  3
 12  2  2  0
 13 32  2  0
 13 23  1  0
 14  1  2  0
 15 22  1  0
 16 34  1  0
 17 20  1  0
 17 30  1  0
 18 28  1  0
 18  4  1  0
 19  8  1  0
 19 33  4  0
 21 25  2  0
 22 12  1  0
 23 14  1  0
 23  6  1  0
 25 20  1  0
 25 28  1  0
 26 16  1  0
 26 15  1  0
 27 13  1  0
 29 17  2  0
 31 33  4  0
 33  3  1  0
 34 12  1  0
M  END
$$$$

     RDKit          3D

 34 38  0  0  0  0  0  0  0  0999 V2000
  191.0729  176.8740  143.9791 C   0  0  0  0  0  0  0  0  0  0  0  0
  190.3680  176.6344  146.7349 C   0  0  0  0  0  0  0  0  0  0  0  0
  187.5097  178.7014  145.4683 N   0  0  0  0  0  0  0  0  0  0  0  0
  191.3154  175.8160  146.2556 C   0  0  0  0  0  0  0  0  0  0  0  0
  189.7093  176.0314  138.8318 C   0  0  0  0  0  0  0  0  0  0  0  0
  190.1214  178.3678  139.4463 O   0  0  0  0  0  0  0  0  0  0  0  0
  188.9368  178.2115  143.6013 C   0  0  0  0  0  0  0  0  0  0  0  0
  193.2335  174.3464  150.5664 C   0  0  0  0  0  0  0  0  0  0  0  0
  187.7812  178.7916  144.1414 C   0  0  0  0  0  0  0  0  0  0  0  0
  188.3349  178.0529  146.3332 C   0  0  0  0  0  0  0  0  0  0  0  0
  193.1190  174.2706  149.2464 C   0  0  0  0  0  0  0  0  0  0  0  0
  187.9558  177.9656  147.7842 C   0  0  0  0  0  0  0  0  0  0  0  0
  188.0787  178.4460  141.2656 C   0  0  0  0  0  0  0  0  0  0  0  0
  192.2370  175.1885  148.5067 C   0  0  0  0  0  0  0  0  0  0  0  0
  189.7942  177.4988  144.4686 C   0  0  0  0  0  0  0  0  0  0  0  0
  188.0885  177.2489  140.3339 C   0  0  0  0  0  0  0  0  0  0  0  0
  192.8196  175.1559  144.3647 C   0  0  0  0  0  0  0  0  0  0  0  0
  187.3935  179.2469  148.2425 N   0  0  0  0  0  0  0  0  0  0  0  0
  191.5827  176.0703  149.1295 O   0  0  0  0  0  0  0  0  0  0  0  0
  190.9443  178.0275  140.5051 N   0  0  0  0  0  0  0  0  0  0  0  0
  189.2043  178.3484  142.1905 N   0  0  0  0  0  0  0  0  0  0  0  0
  191.1619  176.5887  140.7483 C   0  0  0  0  0  0  0  0  0  0  0  0
  192.1520  175.0732  147.1089 O   0  0  0  0  0  0  0  0  0  0  0  0
  189.6606  175.7489  137.4487 O   0  0  0  0  0  0  0  0  0  0  0  0
  193.9004  173.2341  148.5174 C   0  0  0  0  0  0  0  0  0  0  0  0
  190.4780  176.6631  136.7632 C   0  0  0  0  0  0  0  0  0  0  0  0
  189.4879  177.4147  145.8410 C   0  0  0  0  0  0  0  0  0  0  0  0
  188.8330  178.3932  150.0065 C   0  0  0  0  0  0  0  0  0  0  0  0
  191.0895  175.8114  139.4474 C   0  0  0  0  0  0  0  0  0  0  0  0
  189.1100  177.3949  139.2036 C   0  0  0  0  0  0  0  0  0  0  0  0
  191.4261  175.6079  144.7617 C   0  0  0  0  0  0  0  0  0  0  0  0
  188.7764  178.8816  148.5748 C   0  0  0  0  0  0  0  0  0  0  0  0
  190.5446  178.7283  141.7323 C   0  0  0  0  0  0  0  0  0  0  0  0
  190.6150  180.1104  141.5442 O   0  0  0  0  0  0  0  0  0  0  0  0
  1 15  1  0
  1 31  1  0
  3 10  4  0
  4  2  2  0
  4 23  1  0
  5 24  1  0
  5 30  1  0
  6 20  1  0
  7  9  4  0
  7 15  4  0
  9  3  4  0
 11 25  1  0
 11  8  2  0
 12 10  1  0
 12 18  1  0
 12 32  1  0
 13 21  1  0
 14 19  2  0
 14 11  1  0
 15 27  4  0
 16 13  1  0
 18 32  1  0
 20 22  1  0
 20 33  1  0
 21  7  1  0
 23 14  1  0
 26 24  1  0
 27 10  4  0
 27  2  1  0
 29  5  1  0
 29 22  1  0
 30 16  1  0
 30  6  1  0
 31 17  1  0
 31  4  1  0
 32 28  1  0
 33 34  1  0
 33 21  1  0
M  END
$$$$

     RDKit          3D

 34 37  0  0  0  0  0  0  0  0999 V2000
  183.1410  179.0942  142.1911 C   0  0  0  0  0  0  0  0  0  0  0  0
  191.0038  175.6233  144.2260 C   0  0  0  0  0  0  0  0  0  0  0  0
  186.7200  177.7817  144.8559 C   0  0  0  0  0  0  0  0  0  0  0  0
  190.2325  175.6222  143.0245 N   0  0  0  0  0  0  0  0  0  0  0  0
  195.0157  176.6704  151.6342 O   0  0  0  0  0  0  0  0  0  0  0  0
  183.6849  178.5949  146.7162 O   0  0  0  0  0  0  0  0  0  0  0  0
  192.3081  175.9916  146.6655 C   0  0  0  0  0  0  0  0  0  0  0  0
  185.6609  179.0985  140.5012 C   0  0  0  0  0  0  0  0  0  0  0  0
  185.7502  179.0183  141.9908 C   0  0  0  0  0  0  0  0  0  0  0  0
  189.7297  177.4497  144.2733 C   0  0  0  0  0  0  0  0  0  0  0  0
  185.9171  178.2096  147.3008 N   0  0  0  0  0  0  0  0  0  0  0  0
  189.1790  178.5285  144.6153 O   0  0  0  0  0  0  0  0  0  0  0  0
  187.4559  177.7715  146.5428 S   0  0  0  0  0  0  0  0  0  0  0  0
  186.9910  178.9471  142.5383 C   0  0  0  0  0  0  0  0  0  0  0  0
  184.6320  178.4366  143.9752 C   0  0  0  0  0  0  0  0  0  0  0  0
  185.2410  177.9746  145.0159 C   0  0  0  0  0  0  0  0  0  0  0  0
  184.4952  178.9216  142.7878 C   0  0  0  0  0  0  0  0  0  0  0  0
  192.5910  174.8638  145.8521 C   0  0  0  0  0  0  0  0  0  0  0  0
  184.8543  178.2762  146.3739 C   0  0  0  0  0  0  0  0  0  0  0  0
  186.7774  177.3906  139.3631 C   0  0  0  0  0  0  0  0  0  0  0  0
  184.5698  177.8968  138.8292 C   0  0  0  0  0  0  0  0  0  0  0  0
  185.4980  177.7681  139.9374 N   0  0  0  0  0  0  0  0  0  0  0  0
  193.9579  175.2410  148.3988 C   0  0  0  0  0  0  0  0  0  0  0  0
  190.7271  176.7124  145.0060 C   0  0  0  0  0  0  0  0  0  0  0  0
  193.0073  176.1767  147.9596 C   0  0  0  0  0  0  0  0  0  0  0  0
  194.6176  175.4146  149.6186 C   0  0  0  0  0  0  0  0  0  0  0  0
  187.3574  178.9217  144.0203 C   0  0  0  0  0  0  0  0  0  0  0  0
  192.7314  177.2909  148.7686 C   0  0  0  0  0  0  0  0  0  0  0  0
  189.4846  176.6885  143.0457 C   0  0  0  0  0  0  0  0  0  0  0  0
  194.3393  176.5252  150.4200 C   0  0  0  0  0  0  0  0  0  0  0  0
  191.9382  174.6706  144.6214 C   0  0  0  0  0  0  0  0  0  0  0  0
  193.3907  177.4649  149.9882 C   0  0  0  0  0  0  0  0  0  0  0  0
  191.3526  176.9361  146.2283 C   0  0  0  0  0  0  0  0  0  0  0  0
  194.7947  177.7676  152.5098 C   0  0  0  0  0  0  0  0  0  0  0  0
  1 17  1  0
  2 31  4  0
  2 24  4  0
  3 27  1  0
  3 13  1  0
  4 29  2  0
  4  2  1  0
  5 34  1  0
  6 19  2  0
  7 25  1  0
  8  9  1  0
  9 14  2  0
  9 17  1  0
 10 24  1  0
 10 12  2  0
 13 11  1  0
 14 27  1  0
 15 16  2  0
 16  3  1  0
 16 19  1  0
 17 15  2  0
 18  7  4  0
 19 11  1  0
 20 22  1  0
 21 22  1  0
 22  8  1  0
 23 26  4  0
 24 33  4  0
 25 23  4  0
 25 28  4  0
 26 30  4  0
 28 32  4  0
 29 10  1  0
 30  5  1  0
 31 18  4  0
 32 30  4  0
 33  7  4  0
M  END
$$$$

     RDKit          3D

 34 37  0  0  0  0  0  0  0  0999 V2000
  185.6757  178.6540  147.2197 C   0  0  0  0  0  0  0  0  0  0  0  0
  186.9216  178.9372  140.6192 C   0  0  0  0  0  0  0  0  0  0  0  0
  188.8487  178.6487  139.0276 C   0  0  0  0  0  0  0  0  0  0  0  0
  195.4023  174.7954  150.1173 C   0  0  0  0  0  0  0  0  0  0  0  0
  188.2466  179.5746  138.0259 C   0  0  0  0  0  0  0  0  0  0  0  0
  188.6271  178.0442  148.1615 C   0  0  0  0  0  0  0  0  0  0  0  0
  190.6388  176.0296  145.0298 O   0  0  0  0  0  0  0  0  0  0  0  0
  188.3262  178.6003  140.3701 N   0  0  0  0  0  0  0  0  0  0  0  0
  189.8781  177.8900  138.6300 C   0  0  0  0  0  0  0  0  0  0  0  0
  190.5627  176.8388  139.4557 C   0  0  0  0  0  0  0  0  0  0  0  0
  190.9497  177.3472  140.8476 C   0  0  0  0  0  0  0  0  0  0  0  0
  189.9672  177.6552  148.3245 C   0  0  0  0  0  0  0  0  0  0  0  0
  194.1306  174.9149  150.9302 C   0  0  0  0  0  0  0  0  0  0  0  0
  190.6699  176.9800  147.2972 C   0  0  0  0  0  0  0  0  0  0  0  0
  189.8266  177.3722  141.6827 O   0  0  0  0  0  0  0  0  0  0  0  0
  190.0044  176.6903  146.0767 C   0  0  0  0  0  0  0  0  0  0  0  0
  193.2826  176.6509  140.7825 N   0  0  0  0  0  0  0  0  0  0  0  0
  192.7449  175.9982  146.6547 O   0  0  0  0  0  0  0  0  0  0  0  0
  187.9244  178.7524  149.2667 C   0  0  0  0  0  0  0  0  0  0  0  0
  186.7597  177.9867  146.5190 N   0  0  0  0  0  0  0  0  0  0  0  0
  187.8696  176.9129  144.8796 N   0  0  0  0  0  0  0  0  0  0  0  0
  189.2548  178.6336  141.4981 C   0  0  0  0  0  0  0  0  0  0  0  0
  185.9676  177.8049  140.2183 C   0  0  0  0  0  0  0  0  0  0  0  0
  194.0109  176.5545  149.0854 C   0  0  0  0  0  0  0  0  0  0  0  0
  192.0784  176.6006  147.5407 C   0  0  0  0  0  0  0  0  0  0  0  0
  189.7617  175.6970  139.5438 O   0  0  0  0  0  0  0  0  0  0  0  0
  188.6748  177.0889  145.9448 C   0  0  0  0  0  0  0  0  0  0  0  0
  186.3187  178.0228  141.6730 C   0  0  0  0  0  0  0  0  0  0  0  0
  188.0100  177.7388  146.9425 C   0  0  0  0  0  0  0  0  0  0  0  0
  186.6960  177.4780  145.2669 C   0  0  0  0  0  0  0  0  0  0  0  0
  186.6467  176.6782  139.7474 O   0  0  0  0  0  0  0  0  0  0  0  0
  192.6734  176.9189  148.7665 O   0  0  0  0  0  0  0  0  0  0  0  0
  194.0858  175.0773  149.4253 C   0  0  0  0  0  0  0  0  0  0  0  0
  192.0147  176.4556  141.4640 C   0  0  0  0  0  0  0  0  0  0  0  0
  2  8  1  0
  2 28  1  0
  3  8  1  0
  4 13  1  0
  5  3  1  0
  6 12  4  0
  6 19  1  0
  7 16  1  0
  8 22  1  0
  9  3  2  0
  9 10  1  0
 10 26  1  0
 10 11  1  0
 11 15  1  0
 11 34  1  0
 14 25  1  0
 14 12  4  0
 15 22  1  0
 16 14  4  0
 17 34  1  0
 18 25  2  0
 20 29  4  0
 20  1  1  0
 21 30  4  0
 21 27  4  0
 23 31  1  0
 23  2  1  0
 23 28  1  0
 24 33  1  0
 25 32  1  0
 27 16  4  0
 27 29  4  0
 29  6  4  0
 30 20  4  0
 32 24  1  0
 33  4  1  0
 33 13  1  0
M  END
$$$$
