
     RDKit          3D

 26 29  0  0  0  0  0  0  0  0999 V2000
  187.4710  178.0665  146.3643 C   0  0  0  0  0  0  0  0  0  0  0  0
  187.6960  175.6185  146.3148 C   0  0  0  0  0  0  0  0  0  0  0  0
  191.0841  176.4325  143.4337 C   0  0  0  0  0  0  0  0  0  0  0  0
  189.6651  177.0085  145.5088 C   0  0  0  0  0  0  0  0  0  0  0  0
  189.8819  178.3793  145.0197 N   0  0  0  0  0  0  0  0  0  0  0  0
  184.7747  177.9639  147.0281 N   0  0  0  0  0  0  0  0  0  0  0  0
  188.0867  178.3606  143.2968 C   0  0  0  0  0  0  0  0  0  0  0  0
  189.5842  180.1911  143.5705 O   0  0  0  0  0  0  0  0  0  0  0  0
  189.7629  174.2109  146.3612 C   0  0  0  0  0  0  0  0  0  0  0  0
  188.2596  176.8216  146.0644 C   0  0  0  0  0  0  0  0  0  0  0  0
  186.3935  178.3057  145.3402 C   0  0  0  0  0  0  0  0  0  0  0  0
  192.3497  176.6063  144.0018 O   0  0  0  0  0  0  0  0  0  0  0  0
  188.9047  180.4689  142.3623 C   0  0  0  0  0  0  0  0  0  0  0  0
  191.1547  175.4801  142.2483 C   0  0  0  0  0  0  0  0  0  0  0  0
  186.7174  178.6043  143.9225 C   0  0  0  0  0  0  0  0  0  0  0  0
  185.6976  177.4037  147.9290 N   0  0  0  0  0  0  0  0  0  0  0  0
  189.2095  178.9644  144.0703 C   0  0  0  0  0  0  0  0  0  0  0  0
  188.2037  179.1573  141.9913 C   0  0  0  0  0  0  0  0  0  0  0  0
  185.1457  178.2728  145.7076 N   0  0  0  0  0  0  0  0  0  0  0  0
  186.9485  178.1433  147.8037 C   0  0  0  0  0  0  0  0  0  0  0  0
  185.7719  178.9841  143.1764 O   0  0  0  0  0  0  0  0  0  0  0  0
  193.1444  176.3044  141.2094 O   0  0  0  0  0  0  0  0  0  0  0  0
  191.7672  176.1638  141.0373 C   0  0  0  0  0  0  0  0  0  0  0  0
  190.0773  175.9329  144.4781 C   0  0  0  0  0  0  0  0  0  0  0  0
  188.2850  174.2668  146.0210 C   0  0  0  0  0  0  0  0  0  0  0  0
  190.6059  174.6657  145.1723 C   0  0  0  0  0  0  0  0  0  0  0  0
  1 10  1  0
  1 20  1  0
  2 25  1  0
  3 12  1  0
  4  5  1  0
  4 10  1  0
  6 16  1  0
  7 18  1  0
  7 17  1  0
  7 15  1  0
  8 17  1  0
  9 25  1  0
 10  2  2  0
 11 19  2  0
 11  1  1  0
 13 18  1  0
 13  8  1  0
 14  3  1  0
 15 11  1  0
 17  5  2  3
 19  6  1  0
 20 16  1  0
 21 15  2  0
 22 23  1  0
 23 14  1  0
 24  3  1  0
 24  4  1  0
 24 26  1  0
 26  9  1  0
M  END
$$$$

     RDKit          3D

 26 28  0  0  0  0  0  0  0  0999 V2000
  192.1490  176.8098  141.4115 C   0  0  0  0  0  0  0  0  0  0  0  0
  193.7876  176.1691  139.5511 C   0  0  0  0  0  0  0  0  0  0  0  0
  187.2096  177.2683  144.3611 C   0  0  0  0  0  0  0  0  0  0  0  0
  193.4632  176.6408  140.8642 N   0  0  0  0  0  0  0  0  0  0  0  0
  187.4383  177.8066  148.3964 N   0  0  0  0  0  0  0  0  0  0  0  0
  188.8295  178.1128  148.6795 C   0  0  0  0  0  0  0  0  0  0  0  0
  182.9021  179.2727  144.7315 N   0  0  0  0  0  0  0  0  0  0  0  0
  182.2782  179.5102  142.4677 N   0  0  0  0  0  0  0  0  0  0  0  0
  188.3754  177.9724  145.0641 C   0  0  0  0  0  0  0  0  0  0  0  0
  190.7564  177.4630  143.2903 C   0  0  0  0  0  0  0  0  0  0  0  0
  189.7271  176.6908  141.2409 C   0  0  0  0  0  0  0  0  0  0  0  0
  183.2458  179.3232  143.4931 C   0  0  0  0  0  0  0  0  0  0  0  0
  185.8838  177.4652  145.1267 C   0  0  0  0  0  0  0  0  0  0  0  0
  186.0543  177.1963  146.5599 N   0  0  0  0  0  0  0  0  0  0  0  0
  188.5836  177.3295  146.4262 C   0  0  0  0  0  0  0  0  0  0  0  0
  189.6092  177.1658  142.5498 C   0  0  0  0  0  0  0  0  0  0  0  0
  187.3219  177.3812  147.1900 C   0  0  0  0  0  0  0  0  0  0  0  0
  189.5269  178.1168  147.3175 C   0  0  0  0  0  0  0  0  0  0  0  0
  192.0214  177.2850  142.7216 C   0  0  0  0  0  0  0  0  0  0  0  0
  185.3319  178.8816  144.9074 C   0  0  0  0  0  0  0  0  0  0  0  0
  190.9925  176.5134  140.6737 C   0  0  0  0  0  0  0  0  0  0  0  0
  192.7956  175.8150  138.6447 O   0  0  0  0  0  0  0  0  0  0  0  0
  194.9950  176.0734  139.2112 O   0  0  0  0  0  0  0  0  0  0  0  0
  184.9905  179.1613  143.1266 S   0  0  0  0  0  0  0  0  0  0  0  0
  183.8864  179.0738  146.8365 O   0  0  0  0  0  0  0  0  0  0  0  0
  184.0130  179.0670  145.5838 C   0  0  0  0  0  0  0  0  0  0  0  0
  1 19  4  0
  2  4  1  0
  3  9  1  0
  4  1  1  0
  5  6  1  0
  7 26  1  0
  8 12  1  0
 11 16  4  0
 12  7  2  0
 13  3  1  0
 13 14  1  0
 14 17  1  0
 15  9  1  0
 15 17  1  0
 15 18  1  0
 16 10  4  0
 17  5  2  0
 18  6  1  0
 19 10  4  0
 20 24  1  0
 20 13  1  0
 20 26  1  0
 21 11  4  0
 21  1  4  0
 22  2  1  0
 23  2  2  0
 24 12  1  0
 26 25  2  0
M  END
$$$$

     RDKit          3D

 26 29  0  0  0  0  0  0  0  0999 V2000
  191.1916  175.8383  148.4830 C   0  0  0  0  0  0  0  0  0  0  0  0
  190.3305  175.9312  144.7678 O   0  0  0  0  0  0  0  0  0  0  0  0
  184.4313  180.7726  144.5792 C   0  0  0  0  0  0  0  0  0  0  0  0
  184.5523  180.3096  145.8519 N   0  0  0  0  0  0  0  0  0  0  0  0
  191.1634  174.5828  148.4072 O   0  0  0  0  0  0  0  0  0  0  0  0
  191.3699  174.3984  140.4805 N   0  0  0  0  0  0  0  0  0  0  0  0
  185.6422  179.6007  146.2514 C   0  0  0  0  0  0  0  0  0  0  0  0
  186.6750  179.3173  145.3468 C   0  0  0  0  0  0  0  0  0  0  0  0
  192.5809  177.6591  147.4723 C   0  0  0  0  0  0  0  0  0  0  0  0
  186.5675  179.8044  144.0378 C   0  0  0  0  0  0  0  0  0  0  0  0
  190.9483  176.4609  149.7017 O   0  0  0  0  0  0  0  0  0  0  0  0
  188.4526  177.5184  145.0519 C   0  0  0  0  0  0  0  0  0  0  0  0
  190.2111  177.3108  146.7470 C   0  0  0  0  0  0  0  0  0  0  0  0
  193.8547  176.9720  147.5972 N   0  0  0  0  0  0  0  0  0  0  0  0
  188.9887  175.7717  141.0938 S   0  0  0  0  0  0  0  0  0  0  0  0
  189.6509  176.9043  145.5255 C   0  0  0  0  0  0  0  0  0  0  0  0
  190.7830  174.7653  142.7400 N   0  0  0  0  0  0  0  0  0  0  0  0
  190.4735  174.8466  141.4894 C   0  0  0  0  0  0  0  0  0  0  0  0
  185.4412  180.5295  143.6471 C   0  0  0  0  0  0  0  0  0  0  0  0
  189.1800  176.4925  142.7463 C   0  0  0  0  0  0  0  0  0  0  0  0
  187.6213  176.8965  143.5532 S   0  0  0  0  0  0  0  0  0  0  0  0
  191.4612  176.6489  147.2535 C   0  0  0  0  0  0  0  0  0  0  0  0
  187.8791  178.5818  145.7938 C   0  0  0  0  0  0  0  0  0  0  0  0
  189.7833  175.3930  143.5746 C   0  0  0  0  0  0  0  0  0  0  0  0
  188.4556  178.9564  147.0133 C   0  0  0  0  0  0  0  0  0  0  0  0
  189.6017  178.3278  147.4880 C   0  0  0  0  0  0  0  0  0  0  0  0
  1  5  2  0
  1 11  1  0
  2 16  1  0
  3  4  4  0
  4  7  4  0
  6 18  1  0
  8 23  1  0
  8  7  4  0
 10  8  4  0
 12 16  4  0
 12 23  4  0
 13 22  1  0
 13 26  4  0
 14  9  1  0
 15 18  1  0
 16 13  4  0
 18 17  2  0
 19 10  4  0
 19  3  4  0
 20 15  1  0
 20 21  1  0
 20 24  1  0
 21 12  1  0
 22  9  1  0
 22  1  1  0
 23 25  4  0
 24 17  1  0
 24  2  1  0
 25 26  4  0
M  END
$$$$

     RDKit          3D

 26 27  0  0  0  0  0  0  0  0999 V2000
  189.8339  175.9518  148.0883 N   0  0  0  0  0  0  0  0  0  0  0  0
  188.7406  176.5497  147.3832 C   0  0  0  0  0  0  0  0  0  0  0  0
  191.0616  175.5079  147.4938 C   0  0  0  0  0  0  0  0  0  0  0  0
  187.4782  176.9952  148.0772 C   0  0  0  0  0  0  0  0  0  0  0  0
  185.4837  178.1166  146.8345 C   0  0  0  0  0  0  0  0  0  0  0  0
  191.9665  175.5654  141.7133 C   0  0  0  0  0  0  0  0  0  0  0  0
  187.5139  177.3599  145.7911 C   0  0  0  0  0  0  0  0  0  0  0  0
  191.9272  174.7718  149.7413 C   0  0  0  0  0  0  0  0  0  0  0  0
  192.0833  174.9308  148.3057 N   0  0  0  0  0  0  0  0  0  0  0  0
  190.0000  178.5901  142.2169 C   0  0  0  0  0  0  0  0  0  0  0  0
  188.0494  180.1260  142.6802 C   0  0  0  0  0  0  0  0  0  0  0  0
  192.6763  177.7477  141.2204 O   0  0  0  0  0  0  0  0  0  0  0  0
  187.9328  177.6462  143.3315 C   0  0  0  0  0  0  0  0  0  0  0  0
  187.5947  179.9896  141.3666 O   0  0  0  0  0  0  0  0  0  0  0  0
  188.7563  176.7562  146.1005 N   0  0  0  0  0  0  0  0  0  0  0  0
  188.8173  178.8833  143.1331 C   0  0  0  0  0  0  0  0  0  0  0  0
  191.9396  177.0435  141.8934 C   0  0  0  0  0  0  0  0  0  0  0  0
  190.9965  177.6475  142.8904 C   0  0  0  0  0  0  0  0  0  0  0  0
  185.0445  178.5457  145.5703 C   0  0  0  0  0  0  0  0  0  0  0  0
  192.5003  179.5446  143.6713 C   0  0  0  0  0  0  0  0  0  0  0  0
  187.1728  177.3572  142.1947 O   0  0  0  0  0  0  0  0  0  0  0  0
  186.7399  177.5217  146.9033 C   0  0  0  0  0  0  0  0  0  0  0  0
  187.0641  177.7829  144.5417 C   0  0  0  0  0  0  0  0  0  0  0  0
  185.8352  178.3768  144.4654 N   0  0  0  0  0  0  0  0  0  0  0  0
  191.2539  175.6201  146.2541 O   0  0  0  0  0  0  0  0  0  0  0  0
  191.7281  178.2959  144.0706 C   0  0  0  0  0  0  0  0  0  0  0  0
  2  4  1  0
  2  1  1  0
  3  9  1  0
  3  1  1  0
  6 17  1  0
  7 15  1  0
  7 22  4  0
  9  8  1  0
 10 16  1  0
 13 21  1  0
 13 23  1  0
 14 11  1  0
 15  2  2  0
 16 11  1  0
 16 13  1  0
 17 18  1  0
 17 12  2  0
 18 10  1  0
 18 26  1  0
 19  5  4  0
 22  5  4  0
 22  4  1  0
 23 24  4  0
 23  7  4  0
 24 19  4  0
 25  3  2  0
 26 20  1  0
M  END
$$$$

     RDKit          3D

 26 29  0  0  0  0  0  0  0  0999 V2000
  184.4726  178.7074  145.5307 C   0  0  0  0  0  0  0  0  0  0  0  0
  193.2477  174.5523  143.4250 F   0  0  0  0  0  0  0  0  0  0  0  0
  192.1779  175.0248  144.1654 C   0  0  0  0  0  0  0  0  0  0  0  0
  189.7120  176.4002  141.9979 C   0  0  0  0  0  0  0  0  0  0  0  0
  191.5852  176.2742  143.4868 C   0  0  0  0  0  0  0  0  0  0  0  0
  183.0872  178.9617  145.0480 C   0  0  0  0  0  0  0  0  0  0  0  0
  186.9046  177.3540  142.7825 C   0  0  0  0  0  0  0  0  0  0  0  0
  191.8768  176.4450  141.0206 C   0  0  0  0  0  0  0  0  0  0  0  0
  184.5849  177.9342  142.6126 O   0  0  0  0  0  0  0  0  0  0  0  0
  189.0160  177.5961  146.0099 C   0  0  0  0  0  0  0  0  0  0  0  0
  189.3105  176.8314  143.3534 C   0  0  0  0  0  0  0  0  0  0  0  0
  191.0901  175.9012  142.1266 N   0  0  0  0  0  0  0  0  0  0  0  0
  185.5248  178.2284  144.7704 C   0  0  0  0  0  0  0  0  0  0  0  0
  191.2223  174.0257  144.2472 F   0  0  0  0  0  0  0  0  0  0  0  0
  190.2574  177.1411  145.5467 C   0  0  0  0  0  0  0  0  0  0  0  0
  192.6216  175.3235  145.4430 F   0  0  0  0  0  0  0  0  0  0  0  0
  191.9711  175.4211  139.9068 C   0  0  0  0  0  0  0  0  0  0  0  0
  187.9145  177.6702  145.1368 C   0  0  0  0  0  0  0  0  0  0  0  0
  192.6237  177.4079  143.4848 C   0  0  0  0  0  0  0  0  0  0  0  0
  190.3735  176.7573  144.2068 C   0  0  0  0  0  0  0  0  0  0  0  0
  186.1685  178.5777  146.8374 C   0  0  0  0  0  0  0  0  0  0  0  0
  186.6039  178.1453  145.5998 C   0  0  0  0  0  0  0  0  0  0  0  0
  184.8638  178.9245  146.8062 N   0  0  0  0  0  0  0  0  0  0  0  0
  188.0556  177.2856  143.7760 C   0  0  0  0  0  0  0  0  0  0  0  0
  186.9674  178.6579  148.0130 N   0  0  0  0  0  0  0  0  0  0  0  0
  185.5982  177.8494  143.3545 C   0  0  0  0  0  0  0  0  0  0  0  0
  1 23  4  0
  2  3  1  0
  3 16  1  0
  4 11  1  0
  5 19  1  0
  5  3  1  0
  5 20  1  0
  6  1  1  0
  7 26  1  0
  7 24  1  0
  8 12  1  0
  9 26  2  0
 11 24  4  0
 11 20  4  0
 12  4  1  0
 12  5  1  0
 13  1  4  0
 13 22  4  0
 14  3  1  0
 15 10  4  0
 17  8  1  0
 18 22  1  0
 18 10  4  0
 20 15  4  0
 21 25  1  0
 22 21  4  0
 23 21  4  0
 24 18  4  0
 26 13  1  0
M  END
$$$$

     RDKit          3D

 26 28  0  0  0  0  0  0  0  0999 V2000
  192.6965  175.8348  148.9741 N   0  0  0  0  0  0  0  0  0  0  0  0
  190.0443  178.2990  142.2255 C   0  0  0  0  0  0  0  0  0  0  0  0
  190.7790  176.4480  139.0126 N   0  0  0  0  0  0  0  0  0  0  0  0
  190.7824  176.7357  149.9588 O   0  0  0  0  0  0  0  0  0  0  0  0
  186.3210  178.8003  147.3882 C   0  0  0  0  0  0  0  0  0  0  0  0
  189.5639  177.2713  147.3413 C   0  0  0  0  0  0  0  0  0  0  0  0
  186.8424  179.8302  145.2742 C   0  0  0  0  0  0  0  0  0  0  0  0
  187.4848  177.9395  147.1834 C   0  0  0  0  0  0  0  0  0  0  0  0
  187.9781  177.6980  145.7773 C   0  0  0  0  0  0  0  0  0  0  0  0
  190.9400  177.9267  143.3288 N   0  0  0  0  0  0  0  0  0  0  0  0
  192.2976  177.7473  142.8345 C   0  0  0  0  0  0  0  0  0  0  0  0
  193.3372  175.5349  150.2434 C   0  0  0  0  0  0  0  0  0  0  0  0
  190.5000  176.6732  143.9280 C   0  0  0  0  0  0  0  0  0  0  0  0
  191.3626  176.4318  146.3393 C   0  0  0  0  0  0  0  0  0  0  0  0
  190.4010  176.8282  145.4064 C   0  0  0  0  0  0  0  0  0  0  0  0
  191.4049  176.4414  148.9025 C   0  0  0  0  0  0  0  0  0  0  0  0
  190.9071  177.4846  140.0225 C   0  0  0  0  0  0  0  0  0  0  0  0
  191.4246  175.3428  136.8439 C   0  0  0  0  0  0  0  0  0  0  0  0
  190.8036  176.7235  147.5926 C   0  0  0  0  0  0  0  0  0  0  0  0
  188.4063  177.6782  148.1237 C   0  0  0  0  0  0  0  0  0  0  0  0
  189.3561  177.3695  146.0478 N   0  0  0  0  0  0  0  0  0  0  0  0
  191.5989  176.4272  137.8448 C   0  0  0  0  0  0  0  0  0  0  0  0
  192.4688  177.3181  137.6538 O   0  0  0  0  0  0  0  0  0  0  0  0
  189.9125  177.2288  141.1372 C   0  0  0  0  0  0  0  0  0  0  0  0
  186.0277  179.6650  146.4578 N   0  0  0  0  0  0  0  0  0  0  0  0
  187.8116  178.9522  144.9627 C   0  0  0  0  0  0  0  0  0  0  0  0
  1 16  1  0
  1 12  1  0
  2 10  1  0
  3 17  1  0
  6 20  1  0
  7 25  1  0
  8 20  2  0
  8  5  1  0
  9 26  1  0
  9  8  1  0
 10 11  1  0
 10 13  1  0
 13 15  1  0
 14 19  4  0
 15 14  4  0
 15 21  4  0
 16  4  2  0
 17 24  1  0
 18 22  1  0
 19  6  4  0
 19 16  1  0
 21  9  1  0
 21  6  4  0
 22 23  2  0
 22  3  1  0
 24  2  1  0
 25  5  2  0
 26  7  2  0
M  END
$$$$

     RDKit          3D

 26 30  0  0  0  0  0  0  0  0999 V2000
  188.0205  177.7422  147.2778 C   0  0  0  0  0  0  0  0  0  0  0  0
  188.9545  178.1203  140.1681 C   0  0  0  0  0  0  0  0  0  0  0  0
  187.4273  177.1365  146.0011 C   0  0  0  0  0  0  0  0  0  0  0  0
  191.7543  178.7753  142.6532 C   0  0  0  0  0  0  0  0  0  0  0  0
  188.5703  176.9381  145.0700 C   0  0  0  0  0  0  0  0  0  0  0  0
  191.5096  177.8567  143.8451 C   0  0  0  0  0  0  0  0  0  0  0  0
  188.4470  176.4056  143.8518 C   0  0  0  0  0  0  0  0  0  0  0  0
  189.5174  177.9441  147.0309 C   0  0  0  0  0  0  0  0  0  0  0  0
  192.7555  177.3697  144.5854 C   0  0  0  0  0  0  0  0  0  0  0  0
  187.2358  174.7646  146.5133 N   0  0  0  0  0  0  0  0  0  0  0  0
  190.5071  178.4649  144.8050 C   0  0  0  0  0  0  0  0  0  0  0  0
  189.8670  177.3725  145.6563 C   0  0  0  0  0  0  0  0  0  0  0  0
  185.2036  175.9234  146.3215 N   0  0  0  0  0  0  0  0  0  0  0  0
  188.9744  176.7522  138.2316 O   0  0  0  0  0  0  0  0  0  0  0  0
  191.7032  177.4143  140.6243 C   0  0  0  0  0  0  0  0  0  0  0  0
  191.0536  178.2440  141.4515 C   0  0  0  0  0  0  0  0  0  0  0  0
  184.4604  177.9675  147.4151 C   0  0  0  0  0  0  0  0  0  0  0  0
  189.0448  176.8428  147.9591 C   0  0  0  0  0  0  0  0  0  0  0  0
  189.6111  177.2100  139.2171 C   0  0  0  0  0  0  0  0  0  0  0  0
  193.9905  177.8043  143.9500 N   0  0  0  0  0  0  0  0  0  0  0  0
  189.6340  178.6030  141.2154 C   0  0  0  0  0  0  0  0  0  0  0  0
  191.0201  176.8511  139.4492 C   0  0  0  0  0  0  0  0  0  0  0  0
  191.9941  178.5771  145.0941 C   0  0  0  0  0  0  0  0  0  0  0  0
  191.6506  176.0597  138.6461 N   0  0  0  0  0  0  0  0  0  0  0  0
  184.4333  177.1449  146.1418 C   0  0  0  0  0  0  0  0  0  0  0  0
  186.6320  175.8823  146.2721 C   0  0  0  0  0  0  0  0  0  0  0  0
  1 18  1  0
  2 21  2  0
  3 26  1  0
  3  1  1  0
  5  3  1  0
  6  4  1  0
  6 23  1  0
  6  9  1  0
  7  5  2  0
  8  1  1  0
  8 18  1  0
  9 20  1  0
 11  6  1  0
 11 23  1  0
 11 12  1  0
 12  5  1  0
 12  8  1  0
 13 26  1  0
 14 19  2  0
 15 16  2  0
 16  4  1  0
 17 25  1  0
 19  2  1  0
 19 22  1  0
 21 16  1  0
 22 15  1  0
 23  9  1  0
 24 22  2  0
 25 13  1  0
 26 10  2  0
M  END
$$$$

     RDKit          3D

 26 29  0  0  0  0  0  0  0  0999 V2000
  190.7289  175.4401  147.9897 C   0  0  0  0  0  0  0  0  0  0  0  0
  188.7469  176.9483  144.1852 C   0  0  0  0  0  0  0  0  0  0  0  0
  191.0471  178.5328  142.0544 C   0  0  0  0  0  0  0  0  0  0  0  0
  194.9325  177.4007  140.4068 C   0  0  0  0  0  0  0  0  0  0  0  0
  191.0846  173.9694  146.4409 C   0  0  0  0  0  0  0  0  0  0  0  0
  189.2444  177.0987  146.7601 C   0  0  0  0  0  0  0  0  0  0  0  0
  191.3542  174.2796  147.7240 N   0  0  0  0  0  0  0  0  0  0  0  0
  193.6691  176.5584  140.3362 C   0  0  0  0  0  0  0  0  0  0  0  0
  186.8780  180.5915  146.5875 O   0  0  0  0  0  0  0  0  0  0  0  0
  189.8631  177.6475  142.4066 C   0  0  0  0  0  0  0  0  0  0  0  0
  188.6607  177.5395  145.5546 C   0  0  0  0  0  0  0  0  0  0  0  0
  195.2111  177.7417  141.7306 O   0  0  0  0  0  0  0  0  0  0  0  0
  188.2336  179.0405  147.8608 C   0  0  0  0  0  0  0  0  0  0  0  0
  192.4278  177.4136  140.5325 C   0  0  0  0  0  0  0  0  0  0  0  0
  185.8815  176.5733  143.4361 O   0  0  0  0  0  0  0  0  0  0  0  0
  190.0609  175.8670  146.8603 C   0  0  0  0  0  0  0  0  0  0  0  0
  187.8910  178.6722  145.5130 C   0  0  0  0  0  0  0  0  0  0  0  0
  188.6788  178.4019  142.3454 O   0  0  0  0  0  0  0  0  0  0  0  0
  192.2560  177.7334  141.9405 N   0  0  0  0  0  0  0  0  0  0  0  0
  190.0394  177.1016  143.6889 O   0  0  0  0  0  0  0  0  0  0  0  0
  186.7148  177.1234  142.7330 C   0  0  0  0  0  0  0  0  0  0  0  0
  187.3846  178.9324  144.2204 N   0  0  0  0  0  0  0  0  0  0  0  0
  190.2786  174.9332  145.8666 C   0  0  0  0  0  0  0  0  0  0  0  0
  187.6594  179.4451  146.6495 C   0  0  0  0  0  0  0  0  0  0  0  0
  187.8655  177.8667  143.3419 C   0  0  0  0  0  0  0  0  0  0  0  0
  189.0187  177.8757  147.9145 C   0  0  0  0  0  0  0  0  0  0  0  0
  1  7  4  0
  2 20  1  0
  2 11  1  0
  4 12  1  0
  5  7  4  0
  6 26  4  0
  8  4  1  0
  8 14  1  0
  9 24  1  0
 10  3  1  0
 10 20  1  0
 11 17  4  0
 11  6  4  0
 14 19  1  0
 15 21  2  0
 16  6  1  0
 16  1  4  0
 17 24  4  0
 18 10  1  0
 18 25  1  0
 19  3  1  0
 22 17  1  0
 23 16  4  0
 23  5  4  0
 24 13  4  0
 25 21  1  0
 25  2  1  0
 25 22  1  0
 26 13  4  0
M  END
$$$$

     RDKit          3D

 26 26  0  0  0  0  0  0  0  0999 V2000
  187.6475  175.7173  144.4446 C   0  0  0  0  0  0  0  0  0  0  0  0
  191.4782  177.1630  147.4949 O   0  0  0  0  0  0  0  0  0  0  0  0
  192.6937  176.9378  140.9194 C   0  0  0  0  0  0  0  0  0  0  0  0
  192.1853  177.8461  141.8480 O   0  0  0  0  0  0  0  0  0  0  0  0
  193.4948  175.3700  146.0609 O   0  0  0  0  0  0  0  0  0  0  0  0
  193.4385  174.6781  140.7251 O   0  0  0  0  0  0  0  0  0  0  0  0
  184.9167  178.2639  147.6865 N   0  0  0  0  0  0  0  0  0  0  0  0
  190.3904  175.0828  146.7752 O   0  0  0  0  0  0  0  0  0  0  0  0
  192.7110  175.5510  141.5349 C   0  0  0  0  0  0  0  0  0  0  0  0
  190.0199  177.2484  145.2232 C   0  0  0  0  0  0  0  0  0  0  0  0
  192.8101  177.5547  143.6559 C   0  0  0  0  0  0  0  0  0  0  0  0
  188.6856  177.5414  145.8648 C   0  0  0  0  0  0  0  0  0  0  0  0
  188.5381  178.5336  146.8603 C   0  0  0  0  0  0  0  0  0  0  0  0
  183.7066  177.5310  147.3493 C   0  0  0  0  0  0  0  0  0  0  0  0
  191.9393  178.1708  139.0211 O   0  0  0  0  0  0  0  0  0  0  0  0
  187.5580  176.7842  145.4841 C   0  0  0  0  0  0  0  0  0  0  0  0
  191.1010  176.3218  146.3082 S   0  0  0  0  0  0  0  0  0  0  0  0
  190.6969  178.4956  144.6675 C   0  0  0  0  0  0  0  0  0  0  0  0
  187.2910  178.7584  147.4484 C   0  0  0  0  0  0  0  0  0  0  0  0
  191.4490  178.1802  143.3825 C   0  0  0  0  0  0  0  0  0  0  0  0
  186.1786  178.0087  147.0652 C   0  0  0  0  0  0  0  0  0  0  0  0
  191.8251  176.9432  139.6734 C   0  0  0  0  0  0  0  0  0  0  0  0
  186.3182  177.0221  146.0822 C   0  0  0  0  0  0  0  0  0  0  0  0
  189.6183  179.3057  147.2711 O   0  0  0  0  0  0  0  0  0  0  0  0
  192.5609  175.8588  145.4468 C   0  0  0  0  0  0  0  0  0  0  0  0
  192.6803  176.0732  143.9735 C   0  0  0  0  0  0  0  0  0  0  0  0
  1 16  1  0
  3  4  1  0
  6  9  1  0
  9  3  1  0
 10 12  1  0
 10 17  1  0
 11 20  1  0
 11 26  1  0
 12 13  4  0
 13 19  4  0
 13 24  1  0
 14  7  1  0
 16 23  4  0
 16 12  4  0
 17  2  2  0
 17  8  2  0
 18 10  1  0
 20 18  1  0
 21  7  1  0
 21 19  4  0
 22 15  1  0
 22  3  1  0
 23 21  4  0
 25  5  2  0
 25 17  1  0
 26 25  1  0
M  END
$$$$

     RDKit          3D

 26 29  0  0  0  0  0  0  0  0999 V2000
  190.1377  179.4763  143.8332 C   0  0  0  0  0  0  0  0  0  0  0  0
  189.3078  175.6969  145.4562 C   0  0  0  0  0  0  0  0  0  0  0  0
  190.0481  175.1840  137.6221 C   0  0  0  0  0  0  0  0  0  0  0  0
  188.9836  175.0373  144.2491 C   0  0  0  0  0  0  0  0  0  0  0  0
  189.6858  174.2571  141.9598 N   0  0  0  0  0  0  0  0  0  0  0  0
  187.2799  173.8459  145.4364 N   0  0  0  0  0  0  0  0  0  0  0  0
  189.9587  178.0348  145.8904 C   0  0  0  0  0  0  0  0  0  0  0  0
  188.6122  175.4028  146.5876 N   0  0  0  0  0  0  0  0  0  0  0  0
  190.2486  175.6093  140.0530 C   0  0  0  0  0  0  0  0  0  0  0  0
  189.2729  178.9658  144.9555 C   0  0  0  0  0  0  0  0  0  0  0  0
  190.3996  172.9132  138.5807 C   0  0  0  0  0  0  0  0  0  0  0  0
  189.3440  179.8281  147.1182 N   0  0  0  0  0  0  0  0  0  0  0  0
  189.6863  175.2788  142.9684 C   0  0  0  0  0  0  0  0  0  0  0  0
  187.9473  174.0982  144.2815 C   0  0  0  0  0  0  0  0  0  0  0  0
  190.2979  176.3631  142.7712 O   0  0  0  0  0  0  0  0  0  0  0  0
  188.7939  181.4110  145.4250 N   0  0  0  0  0  0  0  0  0  0  0  0
  187.6065  174.4916  146.5833 C   0  0  0  0  0  0  0  0  0  0  0  0
  190.4460  176.6656  145.5514 C   0  0  0  0  0  0  0  0  0  0  0  0
  189.3003  181.7437  144.2716 C   0  0  0  0  0  0  0  0  0  0  0  0
  190.1489  174.3944  140.6086 C   0  0  0  0  0  0  0  0  0  0  0  0
  190.8188  175.8714  138.6986 C   0  0  0  0  0  0  0  0  0  0  0  0
  188.9841  180.0778  145.9034 C   0  0  0  0  0  0  0  0  0  0  0  0
  189.9135  178.5234  147.1229 C   0  0  0  0  0  0  0  0  0  0  0  0
  189.9107  173.8610  137.5614 C   0  0  0  0  0  0  0  0  0  0  0  0
  190.5020  173.1485  139.8952 C   0  0  0  0  0  0  0  0  0  0  0  0
  190.0989  180.7701  143.4814 C   0  0  0  0  0  0  0  0  0  0  0  0
  1 26  2  0
  2  8  4  0
  3 24  2  0
  3 21  1  0
  4 14  4  0
  4  2  4  0
  5 13  1  0
  6 17  4  0
  7 23  2  0
  8 17  4  0
  9 20  2  0
 10  1  1  0
 10  7  1  0
 10 22  1  0
 11 25  2  0
 13  4  1  0
 14  6  4  0
 15 13  2  0
 18  2  1  0
 18  7  1  0
 19 16  2  0
 20  5  1  0
 21  9  1  0
 22 16  1  0
 22 12  2  0
 23 12  1  0
 24 11  1  0
 25 20  1  0
 26 19  1  0
M  END
$$$$

     RDKit          3D

 26 28  0  0  0  0  0  0  0  0999 V2000
  191.3324  176.8359  143.5564 C   0  0  0  0  0  0  0  0  0  0  0  0
  190.6315  177.8114  145.7719 N   0  0  0  0  0  0  0  0  0  0  0  0
  191.6072  177.6762  141.2107 C   0  0  0  0  0  0  0  0  0  0  0  0
  194.9832  175.9660  140.3953 N   0  0  0  0  0  0  0  0  0  0  0  0
  192.4267  177.5630  138.4105 C   0  0  0  0  0  0  0  0  0  0  0  0
  186.3510  178.4363  145.0638 C   0  0  0  0  0  0  0  0  0  0  0  0
  185.4842  178.3574  146.1711 C   0  0  0  0  0  0  0  0  0  0  0  0
  188.2369  178.1916  146.5606 C   0  0  0  0  0  0  0  0  0  0  0  0
  183.6018  178.5835  144.7435 C   0  0  0  0  0  0  0  0  0  0  0  0
  190.4122  176.8572  144.7282 C   0  0  0  0  0  0  0  0  0  0  0  0
  184.1391  178.4326  145.9851 N   0  0  0  0  0  0  0  0  0  0  0  0
  184.4321  178.6660  143.6211 C   0  0  0  0  0  0  0  0  0  0  0  0
  190.1366  178.4336  147.9482 O   0  0  0  0  0  0  0  0  0  0  0  0
  189.6938  178.1373  146.8065 C   0  0  0  0  0  0  0  0  0  0  0  0
  187.3374  178.1316  147.6356 C   0  0  0  0  0  0  0  0  0  0  0  0
  191.7652  175.5425  143.3212 F   0  0  0  0  0  0  0  0  0  0  0  0
  191.5681  176.8683  137.3686 C   0  0  0  0  0  0  0  0  0  0  0  0
  192.9219  176.5820  139.3728 N   0  0  0  0  0  0  0  0  0  0  0  0
  192.9903  177.2570  137.0343 C   0  0  0  0  0  0  0  0  0  0  0  0
  185.9957  178.2107  147.4218 N   0  0  0  0  0  0  0  0  0  0  0  0
  190.6214  177.3914  142.3308 C   0  0  0  0  0  0  0  0  0  0  0  0
  185.8171  178.5919  143.7850 C   0  0  0  0  0  0  0  0  0  0  0  0
  191.9366  176.3899  140.4468 C   0  0  0  0  0  0  0  0  0  0  0  0
  194.1710  177.0808  139.9397 C   0  0  0  0  0  0  0  0  0  0  0  0
  187.7275  178.3585  145.2662 C   0  0  0  0  0  0  0  0  0  0  0  0
  189.4661  176.0265  144.8021 O   0  0  0  0  0  0  0  0  0  0  0  0
  1 16  1  0
  1 10  1  0
  2 14  1  0
  3 21  1  0
  4 24  1  0
  5 18  1  0
  6 25  4  0
  6  7  4  0
  7 20  4  0
  8 14  1  0
  8 15  4  0
  9 11  4  0
 10  2  1  0
 11  7  4  0
 12 22  4  0
 12  9  4  0
 14 13  2  0
 17 19  1  0
 17  5  1  0
 18 23  1  0
 18 24  1  0
 19  5  1  0
 20 15  4  0
 21  1  1  0
 22  6  4  0
 23  3  1  0
 25  8  4  0
 26 10  2  0
M  END
$$$$

     RDKit          3D

 26 27  0  0  0  0  0  0  0  0999 V2000
  190.6981  176.2680  145.6936 C   0  0  0  0  0  0  0  0  0  0  0  0
  191.9218  179.0331  143.3877 C   0  0  0  0  0  0  0  0  0  0  0  0
  189.9307  177.4940  145.2908 C   0  0  0  0  0  0  0  0  0  0  0  0
  184.1234  177.7412  146.6026 O   0  0  0  0  0  0  0  0  0  0  0  0
  193.2080  178.9735  142.6440 C   0  0  0  0  0  0  0  0  0  0  0  0
  191.1405  176.0826  147.0127 C   0  0  0  0  0  0  0  0  0  0  0  0
  190.8446  179.2107  142.7587 O   0  0  0  0  0  0  0  0  0  0  0  0
  191.8550  174.9322  147.3585 C   0  0  0  0  0  0  0  0  0  0  0  0
  190.9762  175.2939  144.7282 C   0  0  0  0  0  0  0  0  0  0  0  0
  188.5496  177.5141  145.8712 C   0  0  0  0  0  0  0  0  0  0  0  0
  190.6890  178.7872  145.5865 C   0  0  0  0  0  0  0  0  0  0  0  0
  191.6912  174.1438  145.0749 C   0  0  0  0  0  0  0  0  0  0  0  0
  186.1752  178.9427  147.1813 C   0  0  0  0  0  0  0  0  0  0  0  0
  192.1306  173.9631  146.3895 C   0  0  0  0  0  0  0  0  0  0  0  0
  186.1070  177.1343  145.4681 C   0  0  0  0  0  0  0  0  0  0  0  0
  194.8782  177.4810  140.3660 O   0  0  0  0  0  0  0  0  0  0  0  0
  183.4048  176.8344  145.9247 O   0  0  0  0  0  0  0  0  0  0  0  0
  196.0785  177.4058  142.3530 N   0  0  0  0  0  0  0  0  0  0  0  0
  185.4961  177.8899  146.3977 C   0  0  0  0  0  0  0  0  0  0  0  0
  193.5607  177.5275  142.3489 C   0  0  0  0  0  0  0  0  0  0  0  0
  187.4481  178.9217  147.5749 C   0  0  0  0  0  0  0  0  0  0  0  0
  187.5326  177.1627  145.0826 C   0  0  0  0  0  0  0  0  0  0  0  0
  192.8405  172.8210  146.7329 O   0  0  0  0  0  0  0  0  0  0  0  0
  191.9168  178.8510  144.8051 N   0  0  0  0  0  0  0  0  0  0  0  0
  194.8579  177.4602  141.6241 C   0  0  0  0  0  0  0  0  0  0  0  0
  188.3540  177.7625  147.3348 C   0  0  0  0  0  0  0  0  0  0  0  0
  1  6  4  0
  2  7  2  0
  2 24  1  0
  3 11  1  0
  3 10  1  0
  3  1  1  0
  4 19  1  0
  5  2  1  0
  6  8  4  0
  9  1  4  0
  9 12  4  0
 10 26  1  0
 12 14  4  0
 13 21  2  0
 14  8  4  0
 14 23  1  0
 15 19  2  0
 16 25  2  0
 17  4  1  0
 19 13  1  0
 20  5  1  0
 22 15  1  0
 22 10  2  0
 24 11  1  0
 25 20  1  0
 25 18  1  0
 26 21  1  0
M  END
$$$$

     RDKit          3D

 26 29  0  0  0  0  0  0  0  0999 V2000
  185.0842  177.7639  143.5156 C   0  0  0  0  0  0  0  0  0  0  0  0
  189.0605  179.2762  148.3856 C   0  0  0  0  0  0  0  0  0  0  0  0
  192.8023  175.3072  148.0339 C   0  0  0  0  0  0  0  0  0  0  0  0
  191.8996  176.2664  143.6613 C   0  0  0  0  0  0  0  0  0  0  0  0
  188.8715  177.1906  143.5480 C   0  0  0  0  0  0  0  0  0  0  0  0
  191.7334  179.0495  143.4921 O   0  0  0  0  0  0  0  0  0  0  0  0
  186.4672  177.4046  143.1484 C   0  0  0  0  0  0  0  0  0  0  0  0
  187.4843  177.5445  144.0072 C   0  0  0  0  0  0  0  0  0  0  0  0
  188.0338  178.7943  147.5308 O   0  0  0  0  0  0  0  0  0  0  0  0
  189.6823  177.8109  145.8585 C   0  0  0  0  0  0  0  0  0  0  0  0
  190.5164  177.1318  146.9228 C   0  0  0  0  0  0  0  0  0  0  0  0
  187.2452  178.0866  145.3910 C   0  0  0  0  0  0  0  0  0  0  0  0
  190.9305  175.9762  144.7872 C   0  0  0  0  0  0  0  0  0  0  0  0
  191.5479  176.3080  146.1479 C   0  0  0  0  0  0  0  0  0  0  0  0
  185.5278  178.9266  146.8533 O   0  0  0  0  0  0  0  0  0  0  0  0
  190.9778  178.3420  142.5538 C   0  0  0  0  0  0  0  0  0  0  0  0
  189.6189  176.7486  144.7957 C   0  0  0  0  0  0  0  0  0  0  0  0
  189.4883  178.4299  142.8830 C   0  0  0  0  0  0  0  0  0  0  0  0
  194.0461  175.3391  147.8456 O   0  0  0  0  0  0  0  0  0  0  0  0
  192.2859  175.5669  149.2962 O   0  0  0  0  0  0  0  0  0  0  0  0
  185.8422  178.4559  145.7282 C   0  0  0  0  0  0  0  0  0  0  0  0
  191.8828  175.0270  146.8952 C   0  0  0  0  0  0  0  0  0  0  0  0
  188.2742  178.2159  146.2754 C   0  0  0  0  0  0  0  0  0  0  0  0
  184.7901  178.2570  144.7203 C   0  0  0  0  0  0  0  0  0  0  0  0
  191.4918  176.9159  142.3700 C   0  0  0  0  0  0  0  0  0  0  0  0
  193.0572  175.8931  143.7691 O   0  0  0  0  0  0  0  0  0  0  0  0
  1 24  2  0
  3 19  2  0
  3 20  1  0
  4 26  2  0
  5 18  1  0
  5  8  1  0
  5 17  1  0
  7  1  1  0
  7  8  2  0
  8 12  1  0
  9  2  1  0
 10 23  1  0
 10 11  1  0
 12 21  1  0
 12 23  2  0
 13  4  1  0
 13 14  1  0
 14 22  1  0
 14 11  1  0
 16 18  1  0
 16  6  1  0
 17 13  1  0
 17 10  1  0
 21 15  2  0
 22  3  1  0
 23  9  1  0
 24 21  1  0
 25 16  1  0
 25  4  1  0
M  END
$$$$

     RDKit          3D

 26 30  0  0  0  0  0  0  0  0999 V2000
  190.8948  176.0324  144.2022 C   0  0  0  0  0  0  0  0  0  0  0  0
  192.3399  178.9278  144.0908 O   0  0  0  0  0  0  0  0  0  0  0  0
  187.9201  178.6615  145.5595 C   0  0  0  0  0  0  0  0  0  0  0  0
  189.9476  177.1206  144.0452 N   0  0  0  0  0  0  0  0  0  0  0  0
  191.3454  177.8474  142.1390 C   0  0  0  0  0  0  0  0  0  0  0  0
  186.5988  179.2494  145.8209 C   0  0  0  0  0  0  0  0  0  0  0  0
  193.7463  177.8176  142.6248 N   0  0  0  0  0  0  0  0  0  0  0  0
  184.3574  176.7419  145.3652 C   0  0  0  0  0  0  0  0  0  0  0  0
  190.8296  179.2526  141.8609 C   0  0  0  0  0  0  0  0  0  0  0  0
  186.2252  177.4151  144.6889 C   0  0  0  0  0  0  0  0  0  0  0  0
  189.0282  175.4893  145.5574 C   0  0  0  0  0  0  0  0  0  0  0  0
  189.9419  177.4334  142.6158 C   0  0  0  0  0  0  0  0  0  0  0  0
  192.3289  176.5517  144.1397 C   0  0  0  0  0  0  0  0  0  0  0  0
  190.5328  175.3098  145.4735 C   0  0  0  0  0  0  0  0  0  0  0  0
  189.6544  179.1989  140.9074 C   0  0  0  0  0  0  0  0  0  0  0  0
  186.3661  180.2652  146.5268 O   0  0  0  0  0  0  0  0  0  0  0  0
  187.6725  177.5426  144.8551 C   0  0  0  0  0  0  0  0  0  0  0  0
  188.7001  175.9573  146.8329 O   0  0  0  0  0  0  0  0  0  0  0  0
  184.4493  178.0501  145.7121 N   0  0  0  0  0  0  0  0  0  0  0  0
  189.4515  178.8486  142.3654 C   0  0  0  0  0  0  0  0  0  0  0  0
  185.4892  176.2922  144.7575 N   0  0  0  0  0  0  0  0  0  0  0  0
  185.6032  178.4479  145.2179 N   0  0  0  0  0  0  0  0  0  0  0  0
  192.2646  176.6794  148.1740 O   0  0  0  0  0  0  0  0  0  0  0  0
  192.4392  177.8099  143.2556 C   0  0  0  0  0  0  0  0  0  0  0  0
  192.6644  175.5646  147.4390 C   0  0  0  0  0  0  0  0  0  0  0  0
  188.6895  176.5099  144.4546 C   0  0  0  0  0  0  0  0  0  0  0  0
  1 13  1  0
  1 14  1  0
  4  1  1  0
  4 26  1  0
  5 24  1  0
  5 12  1  0
  6  3  1  0
  6 16  2  0
  7 24  1  0
  8 19  4  0
  9  5  1  0
  9 20  1  0
 10 22  4  0
 10 17  1  0
 11 18  1  0
 12  4  1  0
 14 11  1  0
 15  9  1  0
 15 20  1  0
 17  3  2  0
 19 22  4  0
 20 12  1  0
 21  8  4  0
 21 10  4  0
 22  6  1  0
 24  2  1  0
 24 13  1  0
 25 23  1  0
 26 17  1  0
 26 11  1  0
M  END
$$$$
