
     RDKit          3D

 28 30  0  0  0  0  0  0  0  0999 V2000
  188.5147  180.1313  144.2910 C   0  0  0  0  0  0  0  0  0  0  0  0
  187.4049  179.8855  141.4600 C   0  0  0  0  0  0  0  0  0  0  0  0
  189.2084  179.9538  145.5998 C   0  0  0  0  0  0  0  0  0  0  0  0
  185.2564  178.9331  141.4839 C   0  0  0  0  0  0  0  0  0  0  0  0
  187.2735  172.2866  144.4170 O   0  0  0  0  0  0  0  0  0  0  0  0
  188.9798  175.6308  145.4575 C   0  0  0  0  0  0  0  0  0  0  0  0
  187.8677  176.4617  146.0215 C   0  0  0  0  0  0  0  0  0  0  0  0
  186.3331  174.5143  146.1115 C   0  0  0  0  0  0  0  0  0  0  0  0
  186.6243  175.8924  146.3218 O   0  0  0  0  0  0  0  0  0  0  0  0
  186.3113  179.4860  142.3283 C   0  0  0  0  0  0  0  0  0  0  0  0
  189.2916  178.5104  145.9728 C   0  0  0  0  0  0  0  0  0  0  0  0
  185.5855  179.0131  140.2303 N   0  0  0  0  0  0  0  0  0  0  0  0
  190.1191  175.6028  146.3649 N   0  0  0  0  0  0  0  0  0  0  0  0
  190.5085  178.0133  146.2318 C   0  0  0  0  0  0  0  0  0  0  0  0
  192.0087  176.4845  147.4908 N   0  0  0  0  0  0  0  0  0  0  0  0
  193.6012  175.2499  148.7276 C   0  0  0  0  0  0  0  0  0  0  0  0
  189.2178  179.9808  143.1627 C   0  0  0  0  0  0  0  0  0  0  0  0
  188.6896  180.0495  141.7858 C   0  0  0  0  0  0  0  0  0  0  0  0
  190.8318  176.6448  146.6924 C   0  0  0  0  0  0  0  0  0  0  0  0
  192.4101  175.3355  147.9315 C   0  0  0  0  0  0  0  0  0  0  0  0
  187.1027  180.6331  144.3133 C   0  0  0  0  0  0  0  0  0  0  0  0
  186.1485  174.2366  144.6266 C   0  0  0  0  0  0  0  0  0  0  0  0
  186.8728  179.6246  140.1315 C   0  0  0  0  0  0  0  0  0  0  0  0
  194.5620  175.1818  149.3688 N   0  0  0  0  0  0  0  0  0  0  0  0
  186.0205  172.8055  144.3977 N   0  0  0  0  0  0  0  0  0  0  0  0
  187.7336  179.6579  138.7405 S   0  0  0  0  0  0  0  0  0  0  0  0
  188.0300  177.7711  146.2058 C   0  0  0  0  0  0  0  0  0  0  0  0
  186.1740  179.7755  143.5840 N   0  0  0  0  0  0  0  0  0  0  0  0
  1 21  1  0
  1  3  1  0
  2 10  1  0
  4 10  1  0
  6 13  1  0
  7 27  2  0
  7  6  1  0
  8  9  1  0
  9  7  1  0
 10 28  2  0
 11  3  1  0
 11 14  2  0
 12  4  2  0
 13 19  2  0
 15 20  2  3
 16 24  3  0
 17  1  2  0
 18  2  2  0
 18 17  1  0
 19 14  1  0
 19 15  1  0
 20 16  1  0
 22  8  1  0
 23 12  1  0
 23  2  1  0
 25  5  1  0
 25 22  1  0
 26 23  2  0
 27 11  1  0
 28 21  1  0
M  END
$$$$

     RDKit          3D

 28 30  0  0  0  0  0  0  0  0999 V2000
  187.1016  173.9798  143.1665 N   0  0  0  0  0  0  0  0  0  0  0  0
  187.3558  180.8385  145.9618 F   0  0  0  0  0  0  0  0  0  0  0  0
  190.4405  175.6691  143.4511 C   0  0  0  0  0  0  0  0  0  0  0  0
  191.7529  176.8532  147.5367 C   0  0  0  0  0  0  0  0  0  0  0  0
  191.3336  176.5114  144.3487 C   0  0  0  0  0  0  0  0  0  0  0  0
  193.2619  179.1076  150.0372 O   0  0  0  0  0  0  0  0  0  0  0  0
  192.6127  178.6665  148.8921 C   0  0  0  0  0  0  0  0  0  0  0  0
  187.4738  180.3331  144.7086 C   0  0  0  0  0  0  0  0  0  0  0  0
  190.5804  177.2927  145.3648 C   0  0  0  0  0  0  0  0  0  0  0  0
  191.0209  177.8784  144.1644 O   0  0  0  0  0  0  0  0  0  0  0  0
  184.8502  174.9999  143.3584 N   0  0  0  0  0  0  0  0  0  0  0  0
  190.3611  174.2495  141.4323 C   0  0  0  0  0  0  0  0  0  0  0  0
  186.7257  176.3030  143.2340 C   0  0  0  0  0  0  0  0  0  0  0  0
  185.2483  179.2723  141.6796 C   0  0  0  0  0  0  0  0  0  0  0  0
  188.5414  178.3905  145.5991 N   0  0  0  0  0  0  0  0  0  0  0  0
  189.1275  177.1269  145.4239 N   0  0  0  0  0  0  0  0  0  0  0  0
  191.5067  179.1453  146.7920 C   0  0  0  0  0  0  0  0  0  0  0  0
  192.4077  177.2984  148.6886 C   0  0  0  0  0  0  0  0  0  0  0  0
  188.1644  178.5373  142.8148 S   0  0  0  0  0  0  0  0  0  0  0  0
  191.3074  177.7744  146.5806 C   0  0  0  0  0  0  0  0  0  0  0  0
  186.2764  175.1111  143.4138 C   0  0  0  0  0  0  0  0  0  0  0  0
  186.6682  177.5613  142.9604 C   0  0  0  0  0  0  0  0  0  0  0  0
  191.2651  175.0553  142.3407 C   0  0  0  0  0  0  0  0  0  0  0  0
  184.1791  177.3700  142.7550 C   0  0  0  0  0  0  0  0  0  0  0  0
  183.9733  176.1497  143.6538 C   0  0  0  0  0  0  0  0  0  0  0  0
  185.3336  178.0419  142.5139 C   0  0  0  0  0  0  0  0  0  0  0  0
  192.1607  179.5901  147.9448 C   0  0  0  0  0  0  0  0  0  0  0  0
  188.0423  179.1528  144.4963 C   0  0  0  0  0  0  0  0  0  0  0  0
  4 18  4  0
  5  3  1  0
  5  9  1  0
  7  6  1  0
  8  2  1  0
  9 16  1  0
  9 20  1  0
 10  5  1  0
 10  9  1  0
 11 21  1  0
 12 23  1  0
 13 21  2  0
 14 26  1  0
 15 16  1  0
 17 27  4  0
 18  7  4  0
 19 22  1  0
 19 28  1  0
 20  4  4  0
 20 17  4  0
 21  1  1  0
 22 13  2  0
 23  3  1  0
 24 25  1  0
 25 11  1  0
 26 24  2  0
 26 22  1  0
 27  7  4  0
 28 15  1  0
 28  8  2  3
M  END
$$$$

     RDKit          3D

 28 30  0  0  0  0  0  0  0  0999 V2000
  185.5205  178.1699  142.4916 C   0  0  0  0  0  0  0  0  0  0  0  0
  192.5065  175.5203  145.8411 C   0  0  0  0  0  0  0  0  0  0  0  0
  187.5450  178.3267  145.7551 C   0  0  0  0  0  0  0  0  0  0  0  0
  186.8884  179.1975  146.5322 C   0  0  0  0  0  0  0  0  0  0  0  0
  185.8350  178.3837  143.8227 C   0  0  0  0  0  0  0  0  0  0  0  0
  187.3579  179.5107  147.8845 C   0  0  0  0  0  0  0  0  0  0  0  0
  191.1516  177.3799  145.2226 C   0  0  0  0  0  0  0  0  0  0  0  0
  188.5290  178.8147  148.4201 C   0  0  0  0  0  0  0  0  0  0  0  0
  193.3445  177.1398  144.2546 C   0  0  0  0  0  0  0  0  0  0  0  0
  186.7471  180.3565  148.5868 O   0  0  0  0  0  0  0  0  0  0  0  0
  193.5301  175.9708  144.9934 C   0  0  0  0  0  0  0  0  0  0  0  0
  187.6914  175.7454  141.2799 C   0  0  0  0  0  0  0  0  0  0  0  0
  186.4597  177.5587  141.5093 C   0  0  0  0  0  0  0  0  0  0  0  0
  194.3234  177.5843  143.4308 F   0  0  0  0  0  0  0  0  0  0  0  0
  184.4844  179.0335  144.5816 S   0  0  0  0  0  0  0  0  0  0  0  0
  187.0840  178.0207  144.4309 N   0  0  0  0  0  0  0  0  0  0  0  0
  183.4839  179.0640  143.2249 C   0  0  0  0  0  0  0  0  0  0  0  0
  193.8711  172.5390  147.2926 O   0  0  0  0  0  0  0  0  0  0  0  0
  191.3502  176.2323  145.9296 N   0  0  0  0  0  0  0  0  0  0  0  0
  184.2134  178.5462  142.1549 C   0  0  0  0  0  0  0  0  0  0  0  0
  192.1500  177.8512  144.3676 C   0  0  0  0  0  0  0  0  0  0  0  0
  189.9260  178.1049  145.3392 N   0  0  0  0  0  0  0  0  0  0  0  0
  193.7959  173.5689  146.5740 C   0  0  0  0  0  0  0  0  0  0  0  0
  187.7727  174.2378  141.3926 C   0  0  0  0  0  0  0  0  0  0  0  0
  186.4033  176.1684  141.6051 O   0  0  0  0  0  0  0  0  0  0  0  0
  192.6466  174.3566  146.6038 O   0  0  0  0  0  0  0  0  0  0  0  0
  188.8389  177.6845  146.2127 C   0  0  0  0  0  0  0  0  0  0  0  0
  189.2046  177.9583  147.6548 C   0  0  0  0  0  0  0  0  0  0  0  0
  1  5  4  0
  2 26  1  0
  3 27  1  0
  3  4  2  0
  4  6  1  0
  5 16  1  0
  6 10  2  0
  6  8  1  0
  7 19  4  0
  9 11  4  0
 11  2  4  0
 12 25  1  0
 13  1  1  0
 13 25  1  0
 14  9  1  0
 15  5  4  0
 16  3  1  0
 17 15  4  0
 19  2  4  0
 20 17  4  0
 20  1  4  0
 21  9  4  0
 21  7  4  0
 22  7  1  0
 23 18  2  0
 24 12  1  0
 26 23  1  0
 27 22  1  0
 27 28  1  0
 28  8  2  0
M  END
$$$$

     RDKit          3D

 28 27  0  0  0  0  0  0  0  0999 V2000
  190.6600  177.9571  147.0160 C   0  0  0  0  0  0  0  0  0  0  0  0
  195.3788  180.8243  150.3522 O   0  0  0  0  0  0  0  0  0  0  0  0
  192.9456  176.4557  140.1510 C   0  0  0  0  0  0  0  0  0  0  0  0
  191.7772  176.7169  141.0474 C   0  0  0  0  0  0  0  0  0  0  0  0
  191.8605  173.9731  142.3889 C   0  0  0  0  0  0  0  0  0  0  0  0
  192.8545  175.5886  139.2438 O   0  0  0  0  0  0  0  0  0  0  0  0
  195.0654  178.5804  149.8414 N   0  0  0  0  0  0  0  0  0  0  0  0
  187.9599  177.2203  147.6309 O   0  0  0  0  0  0  0  0  0  0  0  0
  190.3742  177.3357  145.8679 C   0  0  0  0  0  0  0  0  0  0  0  0
  189.7686  176.0150  143.3647 C   0  0  0  0  0  0  0  0  0  0  0  0
  186.4144  178.4155  144.5704 C   0  0  0  0  0  0  0  0  0  0  0  0
  191.2709  178.1293  140.7973 C   0  0  0  0  0  0  0  0  0  0  0  0
  187.8235  177.3933  146.3888 C   0  0  0  0  0  0  0  0  0  0  0  0
  192.7524  175.1251  142.8254 C   0  0  0  0  0  0  0  0  0  0  0  0
  186.5351  177.9247  145.8806 C   0  0  0  0  0  0  0  0  0  0  0  0
  194.8348  179.7292  150.6474 C   0  0  0  0  0  0  0  0  0  0  0  0
  185.1989  178.9331  144.1141 C   0  0  0  0  0  0  0  0  0  0  0  0
  194.1286  177.1688  140.3078 O   0  0  0  0  0  0  0  0  0  0  0  0
  192.1410  176.5068  142.5294 C   0  0  0  0  0  0  0  0  0  0  0  0
  194.8710  179.7500  150.4260 N   0  0  0  0  0  0  0  0  0  0  0  0
  188.6937  176.4635  144.3113 C   0  0  0  0  0  0  0  0  0  0  0  0
  184.0924  178.9711  144.9659 C   0  0  0  0  0  0  0  0  0  0  0  0
  184.2024  178.4942  146.2743 C   0  0  0  0  0  0  0  0  0  0  0  0
  185.4185  177.9767  146.7297 C   0  0  0  0  0  0  0  0  0  0  0  0
  191.4878  176.9180  144.9427 C   0  0  0  0  0  0  0  0  0  0  0  0
  192.3304  178.3424  147.5472 S   0  0  0  0  0  0  0  0  0  0  0  0
  188.9569  177.0466  145.4906 C   0  0  0  0  0  0  0  0  0  0  0  0
  191.0075  176.9005  143.4937 C   0  0  0  0  0  0  0  0  0  0  0  0
  1 26  1  0
  2 16  2  0
  3 18  1  0
  3  4  1  0
  4 12  1  0
  4 19  1  0
  6  3  2  0
  7 16  1  0
  9  1  2  3
 10 28  1  0
 10 21  1  0
 11 15  4  0
 13  8  2  0
 14  5  1  0
 15 13  1  0
 15 24  4  0
 17 11  4  0
 17 22  4  0
 19 14  1  0
 21 27  2  0
 22 23  4  0
 23 24  4  0
 25  9  1  0
 27  9  1  0
 27 13  1  0
 28 19  1  0
 28 25  1  0
M  END
$$$$

     RDKit          3D

 28 30  0  0  0  0  0  0  0  0999 V2000
  192.6691  176.2303  147.2660 C   0  0  0  0  0  0  0  0  0  0  0  0
  187.7101  178.8716  146.8999 C   0  0  0  0  0  0  0  0  0  0  0  0
  193.7721  176.0596  146.6810 O   0  0  0  0  0  0  0  0  0  0  0  0
  190.5915  178.6133  141.2328 C   0  0  0  0  0  0  0  0  0  0  0  0
  191.5311  176.7787  146.5113 C   0  0  0  0  0  0  0  0  0  0  0  0
  185.8617  178.0559  144.9921 C   0  0  0  0  0  0  0  0  0  0  0  0
  193.2747  174.9590  151.2429 C   0  0  0  0  0  0  0  0  0  0  0  0
  194.2924  173.9445  148.9844 O   0  0  0  0  0  0  0  0  0  0  0  0
  188.1233  177.9823  145.9023 C   0  0  0  0  0  0  0  0  0  0  0  0
  185.2760  176.7186  143.0533 C   0  0  0  0  0  0  0  0  0  0  0  0
  191.1761  178.0536  142.5120 C   0  0  0  0  0  0  0  0  0  0  0  0
  194.9767  176.2234  149.6089 O   0  0  0  0  0  0  0  0  0  0  0  0
  190.4337  177.5616  144.8581 C   0  0  0  0  0  0  0  0  0  0  0  0
  184.9137  177.6386  144.0405 C   0  0  0  0  0  0  0  0  0  0  0  0
  185.5113  178.9293  145.9760 N   0  0  0  0  0  0  0  0  0  0  0  0
  186.3969  179.3384  146.9205 C   0  0  0  0  0  0  0  0  0  0  0  0
  189.7251  176.7945  148.3595 C   0  0  0  0  0  0  0  0  0  0  0  0
  191.6072  178.6131  140.1966 N   0  0  0  0  0  0  0  0  0  0  0  0
  190.2491  177.0336  146.9826 C   0  0  0  0  0  0  0  0  0  0  0  0
  193.8363  175.2454  149.5820 S   0  0  0  0  0  0  0  0  0  0  0  0
  186.5745  176.2091  143.0056 C   0  0  0  0  0  0  0  0  0  0  0  0
  191.6061  177.1083  145.2400 O   0  0  0  0  0  0  0  0  0  0  0  0
  183.5141  178.1522  144.0646 C   0  0  0  0  0  0  0  0  0  0  0  0
  187.1865  177.5541  144.9358 C   0  0  0  0  0  0  0  0  0  0  0  0
  192.5313  175.8932  148.6480 N   0  0  0  0  0  0  0  0  0  0  0  0
  187.5228  176.6215  143.9429 C   0  0  0  0  0  0  0  0  0  0  0  0
  189.5318  177.5266  145.9064 C   0  0  0  0  0  0  0  0  0  0  0  0
  190.1586  178.0527  143.5470 N   0  0  0  0  0  0  0  0  0  0  0  0
  1 25  1  0
  2 16  4  0
  3  1  2  0
  4 11  1  0
  5 19  4  0
  5  1  1  0
  6 15  4  0
  8 20  2  0
  9  2  4  0
 10 14  4  0
 11 28  1  0
 13 22  4  0
 13 27  4  0
 14 23  1  0
 14  6  4  0
 15 16  4  0
 18  4  1  0
 19 17  1  0
 20 12  2  0
 20  7  1  0
 21 10  4  0
 21 26  4  0
 22  5  4  0
 24  6  4  0
 24  9  4  0
 25 20  1  0
 26 24  4  0
 27  9  1  0
 27 19  4  0
 28 13  1  0
M  END
$$$$

     RDKit          3D

 28 31  0  0  0  0  0  0  0  0999 V2000
  186.3765  179.6343  143.2599 O   0  0  0  0  0  0  0  0  0  0  0  0
  190.9686  177.2745  141.1297 N   0  0  0  0  0  0  0  0  0  0  0  0
  187.0719  178.1604  140.9952 C   0  0  0  0  0  0  0  0  0  0  0  0
  188.4962  177.1874  144.8639 C   0  0  0  0  0  0  0  0  0  0  0  0
  193.4485  176.4543  148.3934 N   0  0  0  0  0  0  0  0  0  0  0  0
  189.3191  176.7791  143.6587 C   0  0  0  0  0  0  0  0  0  0  0  0
  190.6032  176.0002  143.8383 C   0  0  0  0  0  0  0  0  0  0  0  0
  190.6735  176.6047  146.1092 C   0  0  0  0  0  0  0  0  0  0  0  0
  187.2899  178.7764  143.4086 C   0  0  0  0  0  0  0  0  0  0  0  0
  189.6446  176.6772  141.1853 C   0  0  0  0  0  0  0  0  0  0  0  0
  188.9070  177.1499  142.4266 C   0  0  0  0  0  0  0  0  0  0  0  0
  190.8384  175.5597  145.1629 O   0  0  0  0  0  0  0  0  0  0  0  0
  192.6403  175.7419  147.4757 C   0  0  0  0  0  0  0  0  0  0  0  0
  191.1893  176.0977  147.4794 C   0  0  0  0  0  0  0  0  0  0  0  0
  187.4102  177.0173  140.0527 C   0  0  0  0  0  0  0  0  0  0  0  0
  187.0184  178.9098  145.8118 N   0  0  0  0  0  0  0  0  0  0  0  0
  186.4738  179.7242  147.9492 N   0  0  0  0  0  0  0  0  0  0  0  0
  193.4239  178.1373  150.1300 C   0  0  0  0  0  0  0  0  0  0  0  0
  187.9663  178.6225  144.7422 C   0  0  0  0  0  0  0  0  0  0  0  0
  193.1221  174.8473  146.7325 O   0  0  0  0  0  0  0  0  0  0  0  0
  188.4854  175.8887  146.8567 O   0  0  0  0  0  0  0  0  0  0  0  0
  187.4123  179.4531  146.9159 C   0  0  0  0  0  0  0  0  0  0  0  0
  187.7360  177.9903  142.2896 N   0  0  0  0  0  0  0  0  0  0  0  0
  191.4561  177.8755  145.7237 C   0  0  0  0  0  0  0  0  0  0  0  0
  190.9991  177.3426  148.8179 S   0  0  0  0  0  0  0  0  0  0  0  0
  189.1701  176.9261  146.2171 C   0  0  0  0  0  0  0  0  0  0  0  0
  192.7673  177.2803  149.1091 C   0  0  0  0  0  0  0  0  0  0  0  0
  188.9170  176.9832  139.8746 C   0  0  0  0  0  0  0  0  0  0  0  0
  1  9  2  0
  3 23  1  0
  4  6  1  0
  4 26  1  0
  5 27  2  0
  6  7  1  0
  7 12  1  0
  8 24  1  0
  8 26  1  0
  8 14  1  0
  9 19  1  0
 10  2  1  0
 10 11  1  0
 11  6  2  0
 12  8  1  0
 13  5  1  0
 14 13  1  0
 14 25  1  0
 15 28  1  0
 15  3  1  0
 16 22  2  3
 19  4  1  0
 19 16  1  0
 20 13  2  0
 22 17  1  0
 23 11  1  0
 23  9  1  0
 25 27  1  0
 26 21  1  0
 27 18  1  0
 28 10  1  0
M  END
$$$$

     RDKit          3D

 28 30  0  0  0  0  0  0  0  0999 V2000
  188.7122  178.3601  144.8772 C   0  0  0  0  0  0  0  0  0  0  0  0
  191.5685  174.1542  146.4355 C   0  0  0  0  0  0  0  0  0  0  0  0
  186.5896  177.7035  143.8533 C   0  0  0  0  0  0  0  0  0  0  0  0
  191.7703  176.1699  147.7579 C   0  0  0  0  0  0  0  0  0  0  0  0
  190.8654  177.1166  144.1693 C   0  0  0  0  0  0  0  0  0  0  0  0
  186.6235  179.5097  145.6731 C   0  0  0  0  0  0  0  0  0  0  0  0
  193.3406  177.1140  142.8179 O   0  0  0  0  0  0  0  0  0  0  0  0
  191.1697  180.3626  143.0550 C   0  0  0  0  0  0  0  0  0  0  0  0
  184.4762  179.9865  145.8050 C   0  0  0  0  0  0  0  0  0  0  0  0
  191.6886  178.3299  144.0019 N   0  0  0  0  0  0  0  0  0  0  0  0
  192.1953  172.7109  148.7821 O   0  0  0  0  0  0  0  0  0  0  0  0
  183.5499  178.9847  145.1228 C   0  0  0  0  0  0  0  0  0  0  0  0
  188.6436  176.5903  143.2169 C   0  0  0  0  0  0  0  0  0  0  0  0
  184.2697  177.6768  144.8231 C   0  0  0  0  0  0  0  0  0  0  0  0
  191.2162  176.3183  145.3990 C   0  0  0  0  0  0  0  0  0  0  0  0
  193.1079  177.9669  143.9033 C   0  0  0  0  0  0  0  0  0  0  0  0
  191.3339  178.9435  142.7870 N   0  0  0  0  0  0  0  0  0  0  0  0
  192.1457  173.9676  148.8563 C   0  0  0  0  0  0  0  0  0  0  0  0
  185.6130  180.2241  145.0251 O   0  0  0  0  0  0  0  0  0  0  0  0
  187.3133  178.5326  144.7513 C   0  0  0  0  0  0  0  0  0  0  0  0
  189.3785  177.3856  144.0954 C   0  0  0  0  0  0  0  0  0  0  0  0
  185.1229  177.8526  143.5774 C   0  0  0  0  0  0  0  0  0  0  0  0
  192.3976  174.5873  150.0749 O   0  0  0  0  0  0  0  0  0  0  0  0
  189.4807  179.2186  145.8358 C   0  0  0  0  0  0  0  0  0  0  0  0
  191.4661  176.9385  146.6314 C   0  0  0  0  0  0  0  0  0  0  0  0
  191.8247  174.7730  147.6672 C   0  0  0  0  0  0  0  0  0  0  0  0
  187.2682  176.7518  143.0930 C   0  0  0  0  0  0  0  0  0  0  0  0
  191.2642  174.9232  145.3089 C   0  0  0  0  0  0  0  0  0  0  0  0
  1 24  1  0
  2 26  4  0
  3 20  4  0
  4 26  4  0
  5 10  1  0
  5 15  1  0
  7 16  1  0
  8 17  1  0
  9 19  1  0
 10 16  1  0
 11 18  2  0
 12  9  1  0
 13 21  4  0
 14 12  1  0
 15 28  4  0
 15 25  4  0
 17 10  1  0
 18 23  1  0
 19  6  1  0
 20  1  4  0
 20  6  1  0
 21  5  1  0
 21  1  4  0
 22 14  1  0
 22  3  1  0
 25  4  4  0
 26 18  1  0
 27 13  4  0
 27  3  4  0
 28  2  4  0
M  END
$$$$

     RDKit          3D

 28 33  0  0  0  0  0  0  0  0999 V2000
  191.1776  175.0221  139.7629 C   0  0  0  0  0  0  0  0  0  0  0  0
  191.5312  175.9871  143.5974 C   0  0  0  0  0  0  0  0  0  0  0  0
  189.0666  176.4468  146.1481 C   0  0  0  0  0  0  0  0  0  0  0  0
  189.8120  175.3251  146.7957 C   0  0  0  0  0  0  0  0  0  0  0  0
  190.9964  175.0916  145.9487 C   0  0  0  0  0  0  0  0  0  0  0  0
  191.8604  176.7954  141.3160 N   0  0  0  0  0  0  0  0  0  0  0  0
  191.1168  176.5101  140.0976 C   0  0  0  0  0  0  0  0  0  0  0  0
  190.9206  176.7234  142.4262 C   0  0  0  0  0  0  0  0  0  0  0  0
  187.8082  176.9718  146.4296 C   0  0  0  0  0  0  0  0  0  0  0  0
  185.8370  180.9982  144.1249 C   0  0  0  0  0  0  0  0  0  0  0  0
  186.2245  179.8684  146.6191 N   0  0  0  0  0  0  0  0  0  0  0  0
  187.2856  177.9720  145.5856 C   0  0  0  0  0  0  0  0  0  0  0  0
  189.8428  174.1806  145.8159 N   0  0  0  0  0  0  0  0  0  0  0  0
  188.0437  178.4283  144.4535 C   0  0  0  0  0  0  0  0  0  0  0  0
  189.3310  177.8872  144.2400 C   0  0  0  0  0  0  0  0  0  0  0  0
  190.9441  176.1179  144.8983 N   0  0  0  0  0  0  0  0  0  0  0  0
  190.4109  178.4201  142.9006 S   0  0  0  0  0  0  0  0  0  0  0  0
  192.5540  174.5802  139.5949 N   0  0  0  0  0  0  0  0  0  0  0  0
  186.2076  179.8422  143.2615 C   0  0  0  0  0  0  0  0  0  0  0  0
  185.9833  178.5681  145.9985 C   0  0  0  0  0  0  0  0  0  0  0  0
  189.0460  174.1222  147.0487 C   0  0  0  0  0  0  0  0  0  0  0  0
  187.5795  179.4228  143.5195 N   0  0  0  0  0  0  0  0  0  0  0  0
  184.8018  180.8250  145.0903 N   0  0  0  0  0  0  0  0  0  0  0  0
  186.4627  182.0881  144.0480 O   0  0  0  0  0  0  0  0  0  0  0  0
  191.6600  177.3448  138.9527 C   0  0  0  0  0  0  0  0  0  0  0  0
  192.4904  175.1891  143.4191 O   0  0  0  0  0  0  0  0  0  0  0  0
  185.0808  180.6808  146.4639 N   0  0  0  0  0  0  0  0  0  0  0  0
  189.7996  176.9145  145.1092 C   0  0  0  0  0  0  0  0  0  0  0  0
  1  7  1  0
  2 16  1  0
  3  9  4  0
  3  4  1  0
  4 13  1  0
  4 21  1  0
  5 16  1  0
  5  4  1  0
  5 13  1  0
  7 25  1  0
  7  6  1  0
  8  6  1  0
  8 17  1  0
  8  2  1  0
 10 23  1  0
 12 20  1  0
 12  9  4  0
 13 21  1  0
 14 12  4  0
 15 14  4  0
 15 28  4  0
 16 28  1  0
 17 15  1  0
 18  1  1  0
 19 22  1  0
 19 10  1  0
 20 11  1  0
 22 14  1  0
 23 27  1  0
 24 10  2  0
 26  2  2  0
 27 11  1  0
 28  3  4  0
M  END
$$$$

     RDKit          3D

 28 32  0  0  0  0  0  0  0  0999 V2000
  189.4208  179.3085  142.8295 C   0  0  0  0  0  0  0  0  0  0  0  0
  190.1334  179.8757  144.0320 C   0  0  0  0  0  0  0  0  0  0  0  0
  191.5701  179.5601  144.0938 N   0  0  0  0  0  0  0  0  0  0  0  0
  189.0026  175.7303  146.4177 C   0  0  0  0  0  0  0  0  0  0  0  0
  186.9437  175.6795  140.5829 N   0  0  0  0  0  0  0  0  0  0  0  0
  192.7620  177.7516  143.0174 C   0  0  0  0  0  0  0  0  0  0  0  0
  192.2598  180.0906  142.9221 C   0  0  0  0  0  0  0  0  0  0  0  0
  192.3572  177.7089  145.4662 C   0  0  0  0  0  0  0  0  0  0  0  0
  187.3518  174.0797  145.3583 C   0  0  0  0  0  0  0  0  0  0  0  0
  188.2325  176.0236  144.1053 C   0  0  0  0  0  0  0  0  0  0  0  0
  191.7860  178.1125  144.1206 C   0  0  0  0  0  0  0  0  0  0  0  0
  188.6862  173.4817  147.3557 C   0  0  0  0  0  0  0  0  0  0  0  0
  188.2380  175.3040  145.2328 C   0  0  0  0  0  0  0  0  0  0  0  0
  187.0920  174.0857  142.9433 C   0  0  0  0  0  0  0  0  0  0  0  0
  187.8763  173.0918  146.3630 C   0  0  0  0  0  0  0  0  0  0  0  0
  188.1676  177.5479  141.7311 C   0  0  0  0  0  0  0  0  0  0  0  0
  188.8645  177.2706  144.0423 O   0  0  0  0  0  0  0  0  0  0  0  0
  187.0511  173.4414  144.0723 N   0  0  0  0  0  0  0  0  0  0  0  0
  188.6996  179.5311  140.5353 C   0  0  0  0  0  0  0  0  0  0  0  0
  187.5459  176.2051  141.7657 C   0  0  0  0  0  0  0  0  0  0  0  0
  188.1273  178.2989  140.5964 N   0  0  0  0  0  0  0  0  0  0  0  0
  192.0516  177.0605  141.9552 N   0  0  0  0  0  0  0  0  0  0  0  0
  189.0837  172.5794  148.2857 F   0  0  0  0  0  0  0  0  0  0  0  0
  189.2008  174.8689  147.4215 C   0  0  0  0  0  0  0  0  0  0  0  0
  187.5740  175.4794  142.8964 C   0  0  0  0  0  0  0  0  0  0  0  0
  189.3552  180.0567  141.6501 C   0  0  0  0  0  0  0  0  0  0  0  0
  188.8194  178.0433  142.8759 C   0  0  0  0  0  0  0  0  0  0  0  0
  193.2859  179.0676  142.4986 C   0  0  0  0  0  0  0  0  0  0  0  0
  1 27  4  0
  1  2  1  0
  2  3  1  0
  3 11  1  0
  4 24  2  0
  5 20  1  0
  6 22  1  0
  6 11  1  0
  7 28  1  0
  7  3  1  0
  9 15  1  0
 10 13  2  0
 11  8  1  0
 12 23  1  0
 13  9  1  0
 13  4  1  0
 14 18  2  0
 15 12  2  0
 16 20  1  0
 16 27  4  0
 17 10  1  0
 18  9  1  0
 19 21  4  0
 19 26  4  0
 20 25  2  0
 21 16  4  0
 24 12  1  0
 25 10  1  0
 25 14  1  0
 26  1  4  0
 27 17  1  0
 28  6  1  0
M  END
$$$$

     RDKit          3D

 28 29  0  0  0  0  0  0  0  0999 V2000
  195.5701  175.8329  151.2262 N   0  0  0  0  0  0  0  0  0  0  0  0
  188.0378  178.4806  146.8336 N   0  0  0  0  0  0  0  0  0  0  0  0
  192.2108  174.7809  141.4226 C   0  0  0  0  0  0  0  0  0  0  0  0
  192.5719  176.6829  146.3680 C   0  0  0  0  0  0  0  0  0  0  0  0
  182.4197  178.9638  143.7424 O   0  0  0  0  0  0  0  0  0  0  0  0
  184.5259  179.5814  146.5869 N   0  0  0  0  0  0  0  0  0  0  0  0
  191.2831  176.8878  145.8520 C   0  0  0  0  0  0  0  0  0  0  0  0
  191.8549  175.6615  143.7051 C   0  0  0  0  0  0  0  0  0  0  0  0
  190.1628  174.1676  142.6594 C   0  0  0  0  0  0  0  0  0  0  0  0
  185.0722  178.4342  144.5651 C   0  0  0  0  0  0  0  0  0  0  0  0
  190.9285  176.3948  144.5557 N   0  0  0  0  0  0  0  0  0  0  0  0
  186.3632  178.2150  145.0471 C   0  0  0  0  0  0  0  0  0  0  0  0
  196.6777  175.4022  149.2319 O   0  0  0  0  0  0  0  0  0  0  0  0
  191.1714  175.2721  142.4076 C   0  0  0  0  0  0  0  0  0  0  0  0
  186.7253  178.6889  146.3126 C   0  0  0  0  0  0  0  0  0  0  0  0
  191.9649  177.8532  148.3962 C   0  0  0  0  0  0  0  0  0  0  0  0
  185.7795  179.3777  147.0744 C   0  0  0  0  0  0  0  0  0  0  0  0
  194.3090  175.6801  149.0503 C   0  0  0  0  0  0  0  0  0  0  0  0
  184.1502  179.1294  145.3581 C   0  0  0  0  0  0  0  0  0  0  0  0
  194.1771  174.5369  148.2592 O   0  0  0  0  0  0  0  0  0  0  0  0
  181.8797  180.0662  145.6737 O   0  0  0  0  0  0  0  0  0  0  0  0
  182.7836  179.3750  144.8763 C   0  0  0  0  0  0  0  0  0  0  0  0
  189.0163  177.7943  146.1006 N   0  0  0  0  0  0  0  0  0  0  0  0
  190.3320  177.5822  146.6186 C   0  0  0  0  0  0  0  0  0  0  0  0
  195.5853  175.6207  149.8199 C   0  0  0  0  0  0  0  0  0  0  0  0
  194.2810  176.9287  148.1795 C   0  0  0  0  0  0  0  0  0  0  0  0
  190.6800  178.0612  147.8901 C   0  0  0  0  0  0  0  0  0  0  0  0
  192.9139  177.1669  147.6339 C   0  0  0  0  0  0  0  0  0  0  0  0
  3 14  1  0
  4 28  4  0
  5 22  2  0
  6 17  4  0
  7  4  4  0
  7 24  4  0
  8 11  1  0
  9 14  1  0
 10 19  4  0
 10 12  4  0
 11  7  1  0
 12 15  4  0
 13 25  2  0
 14  8  1  0
 15 17  4  0
 15  2  1  0
 18 25  1  0
 18 20  1  0
 19  6  4  0
 22 21  1  0
 22 19  1  0
 23  2  1  0
 24 23  1  0
 24 27  4  0
 25  1  1  0
 26 18  1  0
 27 16  4  0
 28 26  1  0
 28 16  4  0
M  END
$$$$

     RDKit          3D

 28 32  0  0  0  0  0  0  0  0999 V2000
  192.1934  177.7835  139.6341 C   0  0  0  0  0  0  0  0  0  0  0  0
  192.2220  176.8477  149.4781 C   0  0  0  0  0  0  0  0  0  0  0  0
  188.2702  177.7561  144.1940 C   0  0  0  0  0  0  0  0  0  0  0  0
  191.9073  176.4314  144.5404 C   0  0  0  0  0  0  0  0  0  0  0  0
  190.1369  177.1506  136.6486 F   0  0  0  0  0  0  0  0  0  0  0  0
  189.0235  177.7514  146.5961 C   0  0  0  0  0  0  0  0  0  0  0  0
  189.5273  177.0685  138.9569 C   0  0  0  0  0  0  0  0  0  0  0  0
  190.0797  177.3220  142.4761 N   0  0  0  0  0  0  0  0  0  0  0  0
  191.3025  177.6360  141.9751 C   0  0  0  0  0  0  0  0  0  0  0  0
  186.2793  179.0734  148.3408 O   0  0  0  0  0  0  0  0  0  0  0  0
  191.8114  177.6393  138.2877 C   0  0  0  0  0  0  0  0  0  0  0  0
  190.4867  177.2836  137.9503 C   0  0  0  0  0  0  0  0  0  0  0  0
  190.5454  176.9658  144.8635 C   0  0  0  0  0  0  0  0  0  0  0  0
  191.2209  177.5602  140.6052 C   0  0  0  0  0  0  0  0  0  0  0  0
  187.1517  178.6586  147.5350 C   0  0  0  0  0  0  0  0  0  0  0  0
  189.6942  177.3469  143.8673 C   0  0  0  0  0  0  0  0  0  0  0  0
  189.9376  177.2161  140.2793 C   0  0  0  0  0  0  0  0  0  0  0  0
  190.1605  177.1032  146.3059 C   0  0  0  0  0  0  0  0  0  0  0  0
  191.4105  177.3660  148.4650 C   0  0  0  0  0  0  0  0  0  0  0  0
  192.6513  175.5193  149.4187 C   0  0  0  0  0  0  0  0  0  0  0  0
  189.2273  177.0793  141.4481 C   0  0  0  0  0  0  0  0  0  0  0  0
  187.0054  178.7546  146.1240 N   0  0  0  0  0  0  0  0  0  0  0  0
  192.2691  174.7090  148.3464 C   0  0  0  0  0  0  0  0  0  0  0  0
  188.1683  178.2232  145.5693 N   0  0  0  0  0  0  0  0  0  0  0  0
  191.0214  176.5593  147.3841 C   0  0  0  0  0  0  0  0  0  0  0  0
  191.4573  175.2270  147.3332 C   0  0  0  0  0  0  0  0  0  0  0  0
  188.4326  178.0068  147.9493 C   0  0  0  0  0  0  0  0  0  0  0  0
  187.3814  176.6220  143.9997 N   0  0  0  0  0  0  0  0  0  0  0  0
  1 14  4  0
  3 28  1  0
  3 24  1  0
  4 13  1  0
  5 12  1  0
  6 27  1  0
  7 17  4  0
  8 16  1  0
  9  8  4  0
 11  1  4  0
 12 11  4  0
 12  7  4  0
 13 18  1  0
 14  9  4  0
 15 27  1  0
 15 10  2  0
 16  3  1  0
 16 13  2  0
 17 14  4  0
 17 21  4  0
 18  6  2  0
 18 25  1  0
 19  2  4  0
 20  2  4  0
 21  8  4  0
 22 15  1  0
 23 20  4  0
 24 22  1  0
 24  6  1  0
 25 26  4  0
 25 19  4  0
 26 23  4  0
M  END
$$$$

     RDKit          3D

 28 29  0  0  0  0  0  0  0  0999 V2000
  188.1460  178.1329  150.4173 C   0  0  0  0  0  0  0  0  0  0  0  0
  189.3193  177.5626  150.9215 C   0  0  0  0  0  0  0  0  0  0  0  0
  188.8733  177.6360  148.1626 C   0  0  0  0  0  0  0  0  0  0  0  0
  190.2340  176.9302  142.1496 O   0  0  0  0  0  0  0  0  0  0  0  0
  191.0648  176.5002  147.7329 C   0  0  0  0  0  0  0  0  0  0  0  0
  189.0907  177.4180  141.9062 N   0  0  0  0  0  0  0  0  0  0  0  0
  187.9233  178.1707  149.0379 C   0  0  0  0  0  0  0  0  0  0  0  0
  191.4479  177.1727  142.4645 C   0  0  0  0  0  0  0  0  0  0  0  0
  185.8185  177.5324  138.8759 O   0  0  0  0  0  0  0  0  0  0  0  0
  192.6753  177.0791  145.9038 C   0  0  0  0  0  0  0  0  0  0  0  0
  190.9545  177.6072  144.3144 C   0  0  0  0  0  0  0  0  0  0  0  0
  192.7961  178.1072  148.0635 O   0  0  0  0  0  0  0  0  0  0  0  0
  190.0468  177.0618  148.6659 C   0  0  0  0  0  0  0  0  0  0  0  0
  187.4275  176.6547  137.4816 O   0  0  0  0  0  0  0  0  0  0  0  0
  188.7501  176.5447  143.8535 O   0  0  0  0  0  0  0  0  0  0  0  0
  189.9617  177.0240  143.3744 C   0  0  0  0  0  0  0  0  0  0  0  0
  187.1155  177.0803  138.6265 C   0  0  0  0  0  0  0  0  0  0  0  0
  187.9891  177.5563  141.0085 C   0  0  0  0  0  0  0  0  0  0  0  0
  191.7849  176.5428  144.8702 N   0  0  0  0  0  0  0  0  0  0  0  0
  188.1102  177.0774  139.6582 N   0  0  0  0  0  0  0  0  0  0  0  0
  190.3355  176.7757  141.5110 C   0  0  0  0  0  0  0  0  0  0  0  0
  184.8175  177.5374  137.8693 C   0  0  0  0  0  0  0  0  0  0  0  0
  191.9022  177.6108  147.1125 C   0  0  0  0  0  0  0  0  0  0  0  0
  191.7485  178.6520  142.3100 C   0  0  0  0  0  0  0  0  0  0  0  0
  193.5085  178.0673  145.3698 O   0  0  0  0  0  0  0  0  0  0  0  0
  186.6403  178.3125  141.5493 S   0  0  0  0  0  0  0  0  0  0  0  0
  190.2701  177.0284  150.0462 C   0  0  0  0  0  0  0  0  0  0  0  0
  191.3568  177.8216  141.1029 C   0  0  0  0  0  0  0  0  0  0  0  0
  1  2  4  0
  2 27  4  0
  3 13  4  0
  4 16  2  0
  5 23  1  0
  7  3  4  0
  7  1  4  0
  8 24  1  0
  9 17  1  0
 10 25  1  0
 10 23  1  0
 11 19  1  0
 13  5  1  0
 13 27  4  0
 14 17  2  0
 15 16  1  0
 16 11  1  0
 17 20  1  0
 18 26  2  0
 18  6  1  0
 19 10  1  0
 20 18  1  0
 21  6  1  0
 21  8  1  0
 22  9  1  0
 23 12  1  0
 28 24  1  0
 28 21  1  0
 28  8  1  0
M  END
$$$$

     RDKit          3D

 28 32  0  0  0  0  0  0  0  0999 V2000
  191.6053  177.1899  144.6351 C   0  0  0  0  0  0  0  0  0  0  0  0
  190.4261  178.0755  140.0692 N   0  0  0  0  0  0  0  0  0  0  0  0
  191.2210  174.4371  145.5847 C   0  0  0  0  0  0  0  0  0  0  0  0
  187.7070  181.7222  146.1414 C   0  0  0  0  0  0  0  0  0  0  0  0
  189.3334  172.8922  146.2044 O   0  0  0  0  0  0  0  0  0  0  0  0
  190.4368  177.2797  143.6334 C   0  0  0  0  0  0  0  0  0  0  0  0
  191.5830  177.4919  139.4590 C   0  0  0  0  0  0  0  0  0  0  0  0
  190.1018  177.9015  141.4495 C   0  0  0  0  0  0  0  0  0  0  0  0
  191.4682  171.9029  145.4938 C   0  0  0  0  0  0  0  0  0  0  0  0
  188.5570  178.3050  144.8791 N   0  0  0  0  0  0  0  0  0  0  0  0
  190.5480  173.0969  145.5017 C   0  0  0  0  0  0  0  0  0  0  0  0
  188.4910  173.9620  145.8619 C   0  0  0  0  0  0  0  0  0  0  0  0
  190.1476  177.5818  148.2073 S   0  0  0  0  0  0  0  0  0  0  0  0
  188.3557  177.8332  147.8246 C   0  0  0  0  0  0  0  0  0  0  0  0
  188.7513  178.8146  142.2035 S   0  0  0  0  0  0  0  0  0  0  0  0
  191.0811  176.8267  145.9523 N   0  0  0  0  0  0  0  0  0  0  0  0
  188.1842  179.3715  145.7755 C   0  0  0  0  0  0  0  0  0  0  0  0
  190.5185  177.9119  146.5607 O   0  0  0  0  0  0  0  0  0  0  0  0
  187.5750  181.4699  147.5121 C   0  0  0  0  0  0  0  0  0  0  0  0
  187.7434  180.2092  147.9875 N   0  0  0  0  0  0  0  0  0  0  0  0
  189.0690  175.2744  146.4441 C   0  0  0  0  0  0  0  0  0  0  0  0
  188.0758  179.1662  147.1750 C   0  0  0  0  0  0  0  0  0  0  0  0
  188.0090  180.6667  145.2786 C   0  0  0  0  0  0  0  0  0  0  0  0
  190.5059  175.4933  146.0094 C   0  0  0  0  0  0  0  0  0  0  0  0
  191.8081  177.6817  138.1661 C   0  0  0  0  0  0  0  0  0  0  0  0
  190.8995  177.2839  142.2619 N   0  0  0  0  0  0  0  0  0  0  0  0
  190.7057  172.2913  144.2156 C   0  0  0  0  0  0  0  0  0  0  0  0
  189.5466  178.5187  143.8205 C   0  0  0  0  0  0  0  0  0  0  0  0
  1 16  1  0
  2  8  1  0
  3 11  1  0
  4 19  4  0
  5 11  1  0
  6  1  1  0
  7  2  1  0
  8 15  1  0
  8 26  2  0
  9 27  1  0
 10 17  1  0
 11  9  1  0
 11 27  1  0
 12  5  1  0
 14 13  1  0
 16 24  1  0
 16 18  1  0
 17 22  4  0
 18 13  1  0
 19 20  4  0
 21 12  1  0
 21 24  1  0
 22 20  4  0
 22 14  1  0
 23  4  4  0
 23 17  4  0
 24  3  2  0
 25  7  2  0
 26  6  1  0
 28 15  1  0
 28  6  1  0
 28 10  1  0
M  END
$$$$

     RDKit          3D

 28 31  0  0  0  0  0  0  0  0999 V2000
  186.1884  177.9229  145.8663 C   0  0  0  0  0  0  0  0  0  0  0  0
  184.0684  178.4079  144.7966 C   0  0  0  0  0  0  0  0  0  0  0  0
  185.4546  178.2649  144.7231 C   0  0  0  0  0  0  0  0  0  0  0  0
  191.5844  176.9583  140.2388 C   0  0  0  0  0  0  0  0  0  0  0  0
  189.9536  177.7092  144.7615 C   0  0  0  0  0  0  0  0  0  0  0  0
  185.5044  177.7325  147.0701 C   0  0  0  0  0  0  0  0  0  0  0  0
  192.1438  176.9875  145.7389 C   0  0  0  0  0  0  0  0  0  0  0  0
  195.1758  175.5679  148.1566 O   0  0  0  0  0  0  0  0  0  0  0  0
  192.8990  176.4577  146.7882 C   0  0  0  0  0  0  0  0  0  0  0  0
  184.1526  177.8762  147.1228 N   0  0  0  0  0  0  0  0  0  0  0  0
  191.4297  177.4454  142.6766 C   0  0  0  0  0  0  0  0  0  0  0  0
  189.4344  177.8046  141.4768 C   0  0  0  0  0  0  0  0  0  0  0  0
  190.8749  177.4433  141.4538 C   0  0  0  0  0  0  0  0  0  0  0  0
  190.8948  176.2316  148.1174 C   0  0  0  0  0  0  0  0  0  0  0  0
  191.3591  175.5331  140.0747 N   0  0  0  0  0  0  0  0  0  0  0  0
  190.7556  177.1415  145.8679 C   0  0  0  0  0  0  0  0  0  0  0  0
  193.0184  175.5274  149.0848 N   0  0  0  0  0  0  0  0  0  0  0  0
  190.1396  176.7614  147.0676 C   0  0  0  0  0  0  0  0  0  0  0  0
  183.4278  178.2068  146.0205 C   0  0  0  0  0  0  0  0  0  0  0  0
  192.0777  175.1321  138.8795 C   0  0  0  0  0  0  0  0  0  0  0  0
  188.4764  177.9011  144.7055 C   0  0  0  0  0  0  0  0  0  0  0  0
  195.0299  174.7160  150.3657 C   0  0  0  0  0  0  0  0  0  0  0  0
  194.4315  175.2938  149.1345 C   0  0  0  0  0  0  0  0  0  0  0  0
  192.2777  176.0751  147.9856 C   0  0  0  0  0  0  0  0  0  0  0  0
  189.2259  178.1647  142.7284 C   0  0  0  0  0  0  0  0  0  0  0  0
  187.6135  177.7668  145.8435 N   0  0  0  0  0  0  0  0  0  0  0  0
  188.0372  178.1323  143.4978 N   0  0  0  0  0  0  0  0  0  0  0  0
  190.3550  177.9293  143.5194 C   0  0  0  0  0  0  0  0  0  0  0  0
  1 26  1  0
  1  6  4  0
  2 19  4  0
  3  2  4  0
  3  1  4  0
  4 13  1  0
  5 21  1  0
  5 16  1  0
  7 16  4  0
  7  9  4  0
  9 24  4  0
 10  6  4  0
 11 28  1  0
 12 25  2  0
 13 12  1  0
 13 11  2  0
 15  4  1  0
 16 18  4  0
 17 23  1  0
 18 14  4  0
 19 10  4  0
 20 15  1  0
 21 26  1  0
 23  8  2  0
 23 22  1  0
 24 14  4  0
 24 17  1  0
 25 28  1  0
 25 27  1  0
 27 21  2  0
 28  5  2  0
M  END
$$$$

     RDKit          3D

 28 28  0  0  0  0  0  0  0  0999 V2000
  188.7414  176.1612  146.5957 C   0  0  0  0  0  0  0  0  0  0  0  0
  189.5389  177.1797  147.3834 C   0  0  0  0  0  0  0  0  0  0  0  0
  192.8771  177.2403  141.8548 N   0  0  0  0  0  0  0  0  0  0  0  0
  187.1760  178.1850  145.7780 C   0  0  0  0  0  0  0  0  0  0  0  0
  192.3295  175.7714  145.3589 C   0  0  0  0  0  0  0  0  0  0  0  0
  188.8369  177.4450  148.7003 C   0  0  0  0  0  0  0  0  0  0  0  0
  185.7577  178.4979  145.4618 C   0  0  0  0  0  0  0  0  0  0  0  0
  192.9122  175.8918  143.9440 C   0  0  0  0  0  0  0  0  0  0  0  0
  190.8617  176.2090  145.4656 C   0  0  0  0  0  0  0  0  0  0  0  0
  183.7042  179.0757  145.7643 N   0  0  0  0  0  0  0  0  0  0  0  0
  188.1020  179.7658  149.1175 C   0  0  0  0  0  0  0  0  0  0  0  0
  182.8152  178.9222  143.4363 C   0  0  0  0  0  0  0  0  0  0  0  0
  192.2440  177.0243  143.1570 C   0  0  0  0  0  0  0  0  0  0  0  0
  187.6820  180.1211  148.0281 O   0  0  0  0  0  0  0  0  0  0  0  0
  190.7180  176.8563  143.0349 C   0  0  0  0  0  0  0  0  0  0  0  0
  194.7723  176.3628  139.8341 O   0  0  0  0  0  0  0  0  0  0  0  0
  188.0885  176.8369  145.4076 C   0  0  0  0  0  0  0  0  0  0  0  0
  193.3783  174.0430  138.9458 O   0  0  0  0  0  0  0  0  0  0  0  0
  192.7102  176.0649  141.0045 C   0  0  0  0  0  0  0  0  0  0  0  0
  193.3881  176.2951  139.6647 C   0  0  0  0  0  0  0  0  0  0  0  0
  184.8558  178.8811  146.3826 N   0  0  0  0  0  0  0  0  0  0  0  0
  185.1930  178.4364  144.2027 C   0  0  0  0  0  0  0  0  0  0  0  0
  190.1176  175.9948  144.1513 C   0  0  0  0  0  0  0  0  0  0  0  0
  183.8891  178.8138  144.4583 C   0  0  0  0  0  0  0  0  0  0  0  0
  193.0457  175.1946  138.7119 C   0  0  0  0  0  0  0  0  0  0  0  0
  190.0502  176.5407  148.6570 C   0  0  0  0  0  0  0  0  0  0  0  0
  192.3002  175.5088  137.4615 C   0  0  0  0  0  0  0  0  0  0  0  0
  189.2470  178.8127  149.2123 C   0  0  0  0  0  0  0  0  0  0  0  0
  1 17  1  0
  2  1  1  0
  2 26  1  0
  2  6  1  0
  3 13  1  0
  5  9  1  0
  6 28  1  0
  7  4  1  0
  7 21  4  0
  8  5  1  0
 10 21  4  0
 11 14  2  0
 11 28  1  0
 12 24  1  0
 13  8  1  0
 13 15  1  0
 15 23  1  0
 19  3  1  0
 20 16  1  0
 20 19  1  0
 22 24  4  0
 22  7  4  0
 23  9  1  0
 24 10  4  0
 25 18  2  0
 25 20  1  0
 26  6  1  0
 27 25  1  0
M  END
$$$$

     RDKit          3D

 28 30  0  0  0  0  0  0  0  0999 V2000
  190.9438  175.1121  146.6045 S   0  0  0  0  0  0  0  0  0  0  0  0
  186.9538  179.0802  147.5796 N   0  0  0  0  0  0  0  0  0  0  0  0
  194.8081  175.1493  142.1081 C   0  0  0  0  0  0  0  0  0  0  0  0
  193.6076  176.9711  143.3749 O   0  0  0  0  0  0  0  0  0  0  0  0
  186.1388  179.0729  146.4051 C   0  0  0  0  0  0  0  0  0  0  0  0
  184.0329  178.4973  145.3200 C   0  0  0  0  0  0  0  0  0  0  0  0
  186.6214  179.7073  145.1301 C   0  0  0  0  0  0  0  0  0  0  0  0
  194.2445  177.4657  141.0153 C   0  0  0  0  0  0  0  0  0  0  0  0
  191.7510  173.0498  143.8748 O   0  0  0  0  0  0  0  0  0  0  0  0
  190.4273  176.6873  146.2982 C   0  0  0  0  0  0  0  0  0  0  0  0
  183.1992  177.3134  145.4406 N   0  0  0  0  0  0  0  0  0  0  0  0
  189.1988  178.8079  146.8110 N   0  0  0  0  0  0  0  0  0  0  0  0
  192.3055  176.4993  143.1684 C   0  0  0  0  0  0  0  0  0  0  0  0
  191.8181  175.0178  145.1728 C   0  0  0  0  0  0  0  0  0  0  0  0
  194.3496  176.5912  142.2476 C   0  0  0  0  0  0  0  0  0  0  0  0
  190.8986  177.1451  145.1162 N   0  0  0  0  0  0  0  0  0  0  0  0
  192.5664  173.8167  144.7062 C   0  0  0  0  0  0  0  0  0  0  0  0
  182.8429  177.7308  142.6416 C   0  0  0  0  0  0  0  0  0  0  0  0
  184.7764  178.5121  143.9924 C   0  0  0  0  0  0  0  0  0  0  0  0
  192.5916  172.1517  143.3105 N   0  0  0  0  0  0  0  0  0  0  0  0
  184.9589  178.5311  146.4567 N   0  0  0  0  0  0  0  0  0  0  0  0
  188.3026  179.6300  147.6123 C   0  0  0  0  0  0  0  0  0  0  0  0
  189.1564  176.9839  148.2685 O   0  0  0  0  0  0  0  0  0  0  0  0
  191.6613  176.2158  144.4817 C   0  0  0  0  0  0  0  0  0  0  0  0
  189.5677  177.4781  147.1840 C   0  0  0  0  0  0  0  0  0  0  0  0
  195.4478  177.5817  141.9395 C   0  0  0  0  0  0  0  0  0  0  0  0
  185.9950  179.0531  143.9349 C   0  0  0  0  0  0  0  0  0  0  0  0
  184.2220  178.0294  142.8008 O   0  0  0  0  0  0  0  0  0  0  0  0
  2 22  1  0
  3 15  1  0
  4 13  1  0
  5  2  1  0
  6 11  1  0
  6 21  1  0
  7  5  1  0
  8 26  1  0
  8 15  1  0
  9 17  1  0
 10  1  4  0
 10 25  1  0
 12 25  1  0
 12 22  1  0
 13 24  1  0
 14  1  4  0
 15  4  1  0
 16 10  4  0
 17 14  1  0
 18 28  1  0
 19  6  1  0
 20  9  1  0
 21  5  2  0
 24 16  4  0
 24 14  4  0
 25 23  2  0
 26 15  1  0
 27 19  2  0
 27  7  1  0
 28 19  1  0
M  END
$$$$
