
     RDKit          3D

 30 34  0  0  0  0  0  0  0  0999 V2000
  192.2613  174.8449  141.8146 C   0  0  0  0  0  0  0  0  0  0  0  0
  191.5915  175.6273  144.1048 C   0  0  0  0  0  0  0  0  0  0  0  0
  185.5738  179.9191  146.3976 C   0  0  0  0  0  0  0  0  0  0  0  0
  193.0052  175.4042  146.0385 N   0  0  0  0  0  0  0  0  0  0  0  0
  187.1319  177.7314  142.4791 N   0  0  0  0  0  0  0  0  0  0  0  0
  187.7492  178.9412  147.0710 O   0  0  0  0  0  0  0  0  0  0  0  0
  190.3170  178.0199  142.2835 C   0  0  0  0  0  0  0  0  0  0  0  0
  185.1872  178.1060  143.7747 C   0  0  0  0  0  0  0  0  0  0  0  0
  191.6137  177.2347  142.1758 C   0  0  0  0  0  0  0  0  0  0  0  0
  185.9465  178.4200  142.7693 N   0  0  0  0  0  0  0  0  0  0  0  0
  193.9833  175.8417  143.9519 F   0  0  0  0  0  0  0  0  0  0  0  0
  189.1596  174.8961  147.1955 S   0  0  0  0  0  0  0  0  0  0  0  0
  191.3963  175.7974  142.6218 C   0  0  0  0  0  0  0  0  0  0  0  0
  189.3193  177.5305  141.2453 C   0  0  0  0  0  0  0  0  0  0  0  0
  190.4816  175.4561  144.9448 C   0  0  0  0  0  0  0  0  0  0  0  0
  185.5710  180.7204  145.1007 C   0  0  0  0  0  0  0  0  0  0  0  0
  192.8722  175.6260  144.6994 C   0  0  0  0  0  0  0  0  0  0  0  0
  188.0072  178.1955  141.4530 C   0  0  0  0  0  0  0  0  0  0  0  0
  186.6267  177.6411  145.7123 C   0  0  0  0  0  0  0  0  0  0  0  0
  187.7935  177.0300  146.1219 C   0  0  0  0  0  0  0  0  0  0  0  0
  190.6533  175.1850  146.2830 C   0  0  0  0  0  0  0  0  0  0  0  0
  189.0612  175.5719  144.5204 C   0  0  0  0  0  0  0  0  0  0  0  0
  184.3322  180.4143  144.2526 C   0  0  0  0  0  0  0  0  0  0  0  0
  191.9290  175.1757  146.8397 C   0  0  0  0  0  0  0  0  0  0  0  0
  186.6341  178.8580  146.3832 C   0  0  0  0  0  0  0  0  0  0  0  0
  184.1198  178.9759  144.1416 N   0  0  0  0  0  0  0  0  0  0  0  0
  185.6008  177.0727  144.7740 C   0  0  0  0  0  0  0  0  0  0  0  0
  188.2172  175.6264  145.7985 C   0  0  0  0  0  0  0  0  0  0  0  0
  188.4695  177.8641  146.9387 N   0  0  0  0  0  0  0  0  0  0  0  0
  187.6950  179.1934  140.7507 O   0  0  0  0  0  0  0  0  0  0  0  0
  2 17  4  0
  2 15  4  0
  3 25  1  0
  4 24  4  0
  5 10  1  0
  6 29  4  0
  7  9  1  0
  8 26  1  0
  8 27  1  0
  9 13  1  0
 10  8  2  3
 11 17  1  0
 13  1  1  0
 13  2  1  0
 14  7  1  0
 14 18  1  0
 15 22  1  0
 15 21  4  0
 16  3  1  0
 17  4  4  0
 18  5  1  0
 19 25  4  0
 19 20  4  0
 20 29  4  0
 21 12  1  0
 23 16  1  0
 24 21  4  0
 25  6  4  0
 26 23  1  0
 27 19  1  0
 28 22  1  0
 28 20  1  0
 28 12  1  0
 30 18  2  0
M  END
$$$$

     RDKit          3D

 30 33  0  0  0  0  0  0  0  0999 V2000
  190.8572  174.7362  142.2626 C   0  0  0  0  0  0  0  0  0  0  0  0
  191.9916  176.7250  146.9688 O   0  0  0  0  0  0  0  0  0  0  0  0
  187.9425  179.0123  144.0509 N   0  0  0  0  0  0  0  0  0  0  0  0
  195.3413  174.8314  140.5708 N   0  0  0  0  0  0  0  0  0  0  0  0
  184.5836  181.2252  146.7033 N   0  0  0  0  0  0  0  0  0  0  0  0
  185.7325  180.3935  146.6016 C   0  0  0  0  0  0  0  0  0  0  0  0
  187.3863  179.0613  147.6693 C   0  0  0  0  0  0  0  0  0  0  0  0
  189.3882  174.8370  143.3227 S   0  0  0  0  0  0  0  0  0  0  0  0
  192.5504  175.7384  139.5198 N   0  0  0  0  0  0  0  0  0  0  0  0
  192.7302  173.4263  139.9329 O   0  0  0  0  0  0  0  0  0  0  0  0
  190.3729  175.2706  144.7898 C   0  0  0  0  0  0  0  0  0  0  0  0
  187.9904  178.7705  146.4332 C   0  0  0  0  0  0  0  0  0  0  0  0
  186.2827  179.8567  147.7230 N   0  0  0  0  0  0  0  0  0  0  0  0
  187.3290  178.5758  149.9904 O   0  0  0  0  0  0  0  0  0  0  0  0
  189.1502  177.9620  146.3454 C   0  0  0  0  0  0  0  0  0  0  0  0
  194.8975  175.0227  139.2010 C   0  0  0  0  0  0  0  0  0  0  0  0
  187.4088  179.2974  145.2627 C   0  0  0  0  0  0  0  0  0  0  0  0
  190.3502  174.3853  140.5572 S   0  0  0  0  0  0  0  0  0  0  0  0
  189.0299  177.6086  148.7844 O   0  0  0  0  0  0  0  0  0  0  0  0
  193.7740  176.0082  139.1658 C   0  0  0  0  0  0  0  0  0  0  0  0
  192.0334  174.4755  139.9667 C   0  0  0  0  0  0  0  0  0  0  0  0
  187.9089  178.4291  148.8824 C   0  0  0  0  0  0  0  0  0  0  0  0
  192.0196  176.9579  145.5959 C   0  0  0  0  0  0  0  0  0  0  0  0
  190.8079  176.7330  144.7504 C   0  0  0  0  0  0  0  0  0  0  0  0
  189.0334  178.2171  143.9258 C   0  0  0  0  0  0  0  0  0  0  0  0
  186.2819  180.1155  145.3493 C   0  0  0  0  0  0  0  0  0  0  0  0
  189.6691  177.6749  145.0481 C   0  0  0  0  0  0  0  0  0  0  0  0
  190.7788  176.4238  147.6398 C   0  0  0  0  0  0  0  0  0  0  0  0
  193.0889  177.3380  145.0531 O   0  0  0  0  0  0  0  0  0  0  0  0
  189.8937  177.6559  147.6488 C   0  0  0  0  0  0  0  0  0  0  0  0
  1  8  1  0
  2 28  1  0
  3 25  4  0
  3 17  4  0
  5  6  1  0
  6 13  4  0
  7 22  1  0
  8 11  1  0
  9 21  1  0
 12 15  4  0
 12  7  4  0
 13  7  4  0
 15 30  1  0
 16  4  1  0
 17 12  4  0
 18  1  1  0
 20 16  1  0
 20  9  2  3
 21 10  2  0
 21 18  1  0
 22 19  1  0
 22 14  2  0
 23 29  2  0
 23  2  1  0
 24 11  1  0
 24 23  1  0
 25 27  4  0
 26 17  4  0
 26  6  4  0
 27 24  1  0
 27 15  4  0
 30 28  1  0
 30 19  1  0
M  END
$$$$

     RDKit          3D

 30 33  0  0  0  0  0  0  0  0999 V2000
  190.9654  177.8785  143.9235 C   0  0  0  0  0  0  0  0  0  0  0  0
  186.4474  179.6981  144.0520 C   0  0  0  0  0  0  0  0  0  0  0  0
  189.1646  176.7253  146.9578 C   0  0  0  0  0  0  0  0  0  0  0  0
  192.5415  176.0833  151.3228 C   0  0  0  0  0  0  0  0  0  0  0  0
  191.4603  176.2927  150.4621 C   0  0  0  0  0  0  0  0  0  0  0  0
  191.5771  175.9781  149.1051 C   0  0  0  0  0  0  0  0  0  0  0  0
  187.6244  177.6378  144.5137 C   0  0  0  0  0  0  0  0  0  0  0  0
  188.5477  178.3557  145.2862 C   0  0  0  0  0  0  0  0  0  0  0  0
  188.7294  175.9885  147.7371 N   0  0  0  0  0  0  0  0  0  0  0  0
  187.3893  180.3872  144.8378 C   0  0  0  0  0  0  0  0  0  0  0  0
  190.3832  177.4034  142.6021 C   0  0  0  0  0  0  0  0  0  0  0  0
  191.8580  176.6558  145.6744 C   0  0  0  0  0  0  0  0  0  0  0  0
  188.4054  179.7013  145.4281 N   0  0  0  0  0  0  0  0  0  0  0  0
  187.3066  181.8122  145.0320 C   0  0  0  0  0  0  0  0  0  0  0  0
  185.3148  180.3988  143.3794 C   0  0  0  0  0  0  0  0  0  0  0  0
  193.8539  175.2447  149.4680 C   0  0  0  0  0  0  0  0  0  0  0  0
  190.5014  175.6735  140.8145 C   0  0  0  0  0  0  0  0  0  0  0  0
  191.6972  175.3174  139.2002 C   0  0  0  0  0  0  0  0  0  0  0  0
  191.8727  175.2738  146.2175 C   0  0  0  0  0  0  0  0  0  0  0  0
  190.5931  176.9647  145.0055 N   0  0  0  0  0  0  0  0  0  0  0  0
  192.4775  175.5902  144.9907 O   0  0  0  0  0  0  0  0  0  0  0  0
  192.9223  175.1266  147.2167 N   0  0  0  0  0  0  0  0  0  0  0  0
  193.7384  175.5590  150.8258 C   0  0  0  0  0  0  0  0  0  0  0  0
  191.1033  176.1551  142.1253 C   0  0  0  0  0  0  0  0  0  0  0  0
  191.2286  174.4404  140.3368 C   0  0  0  0  0  0  0  0  0  0  0  0
  192.7750  175.4522  148.6016 C   0  0  0  0  0  0  0  0  0  0  0  0
  190.9889  176.4854  139.7064 N   0  0  0  0  0  0  0  0  0  0  0  0
  187.2413  182.9570  145.1882 N   0  0  0  0  0  0  0  0  0  0  0  0
  186.5739  178.3169  143.8976 C   0  0  0  0  0  0  0  0  0  0  0  0
  189.7065  177.6641  145.9593 C   0  0  0  0  0  0  0  0  0  0  0  0
  1 20  1  0
  2 10  4  0
  3  9  3  0
  5  4  4  0
  6  5  4  0
  7  8  4  0
  8 13  4  0
  8 30  1  0
 10 13  4  0
 10 14  1  0
 11  1  1  0
 12 20  1  0
 12 19  1  0
 14 28  3  0
 15  2  1  0
 16 23  4  0
 17 27  1  0
 17 24  1  0
 18 27  1  0
 19 22  1  0
 20 30  1  0
 21 12  1  0
 21 19  1  0
 22 26  1  0
 23  4  4  0
 24 11  1  0
 25 18  1  0
 25 17  1  0
 26  6  4  0
 26 16  4  0
 29  2  4  0
 29  7  4  0
 30  3  1  0
M  END
$$$$

     RDKit          3D

 30 32  0  0  0  0  0  0  0  0999 V2000
  189.7779  177.4192  140.5450 C   0  0  0  0  0  0  0  0  0  0  0  0
  189.3172  178.0395  145.3289 N   0  0  0  0  0  0  0  0  0  0  0  0
  194.7701  176.2273  140.6137 N   0  0  0  0  0  0  0  0  0  0  0  0
  188.7861  177.2414  146.3529 N   0  0  0  0  0  0  0  0  0  0  0  0
  187.2287  176.5644  147.7611 C   0  0  0  0  0  0  0  0  0  0  0  0
  191.9741  176.6725  141.4754 N   0  0  0  0  0  0  0  0  0  0  0  0
  193.7434  176.8442  139.7921 C   0  0  0  0  0  0  0  0  0  0  0  0
  188.5270  176.9242  139.8441 C   0  0  0  0  0  0  0  0  0  0  0  0
  185.0728  177.5373  147.7526 N   0  0  0  0  0  0  0  0  0  0  0  0
  187.5440  177.3895  146.7487 C   0  0  0  0  0  0  0  0  0  0  0  0
  191.6317  177.2917  142.7639 C   0  0  0  0  0  0  0  0  0  0  0  0
  185.9457  176.6241  148.2986 C   0  0  0  0  0  0  0  0  0  0  0  0
  185.4271  178.3557  146.7411 N   0  0  0  0  0  0  0  0  0  0  0  0
  190.7424  175.8325  147.0519 C   0  0  0  0  0  0  0  0  0  0  0  0
  192.7632  177.6032  140.6707 C   0  0  0  0  0  0  0  0  0  0  0  0
  186.6842  178.2997  146.2138 C   0  0  0  0  0  0  0  0  0  0  0  0
  193.4391  176.2016  149.0604 C   0  0  0  0  0  0  0  0  0  0  0  0
  191.5747  176.7261  147.8398 N   0  0  0  0  0  0  0  0  0  0  0  0
  188.3670  175.8106  148.0564 C   0  0  0  0  0  0  0  0  0  0  0  0
  186.3820  180.1024  144.5225 O   0  0  0  0  0  0  0  0  0  0  0  0
  189.4027  178.0054  141.8962 C   0  0  0  0  0  0  0  0  0  0  0  0
  187.2121  179.1520  145.1205 C   0  0  0  0  0  0  0  0  0  0  0  0
  192.8932  176.2697  147.7170 N   0  0  0  0  0  0  0  0  0  0  0  0
  188.4621  179.0002  144.7297 N   0  0  0  0  0  0  0  0  0  0  0  0
  189.3233  176.2762  147.1266 C   0  0  0  0  0  0  0  0  0  0  0  0
  186.8320  180.9454  143.4720 C   0  0  0  0  0  0  0  0  0  0  0  0
  190.7650  176.2623  140.7443 C   0  0  0  0  0  0  0  0  0  0  0  0
  188.8179  176.6076  138.5168 O   0  0  0  0  0  0  0  0  0  0  0  0
  193.6063  177.2709  147.0455 N   0  0  0  0  0  0  0  0  0  0  0  0
  190.6611  178.4672  142.6128 C   0  0  0  0  0  0  0  0  0  0  0  0
  1  8  1  0
  1 21  1  0
  2  4  1  0
  4 10  4  0
  4 25  4  0
  5 12  4  0
  5 19  4  0
  6 11  1  0
  7  3  1  0
  7 15  1  0
  9 12  4  0
 10  5  4  0
 11 30  1  0
 13  9  4  0
 14 18  1  0
 15  6  1  0
 16 13  4  0
 16 10  4  0
 17 23  1  0
 20 22  1  0
 21 30  1  0
 22 16  1  0
 23 18  1  0
 23 29  1  0
 24 22  2  0
 24  2  1  0
 25 14  1  0
 25 19  4  0
 26 20  1  0
 27  1  1  0
 27  6  1  0
 28  8  1  0
M  END
$$$$

     RDKit          3D

 30 34  0  0  0  0  0  0  0  0999 V2000
  189.2122  178.1229  146.9188 C   0  0  0  0  0  0  0  0  0  0  0  0
  194.2557  175.6720  141.3580 C   0  0  0  0  0  0  0  0  0  0  0  0
  190.9919  177.1524  144.4658 C   0  0  0  0  0  0  0  0  0  0  0  0
  186.7505  178.7892  147.3847 C   0  0  0  0  0  0  0  0  0  0  0  0
  193.4704  174.4341  141.6239 C   0  0  0  0  0  0  0  0  0  0  0  0
  192.0548  177.3937  141.7552 O   0  0  0  0  0  0  0  0  0  0  0  0
  185.9524  177.9790  146.6362 C   0  0  0  0  0  0  0  0  0  0  0  0
  190.8439  175.5602  146.3345 N   0  0  0  0  0  0  0  0  0  0  0  0
  183.8825  179.0793  147.4984 N   0  0  0  0  0  0  0  0  0  0  0  0
  183.5931  177.4314  146.0413 N   0  0  0  0  0  0  0  0  0  0  0  0
  187.7381  176.8024  145.6905 C   0  0  0  0  0  0  0  0  0  0  0  0
  192.2558  174.4229  141.7387 O   0  0  0  0  0  0  0  0  0  0  0  0
  188.2475  178.8590  147.5190 C   0  0  0  0  0  0  0  0  0  0  0  0
  192.1666  176.3642  143.9133 C   0  0  0  0  0  0  0  0  0  0  0  0
  190.0773  176.2519  145.3062 C   0  0  0  0  0  0  0  0  0  0  0  0
  188.9741  177.0359  145.9511 C   0  0  0  0  0  0  0  0  0  0  0  0
  182.4182  177.9161  146.4081 N   0  0  0  0  0  0  0  0  0  0  0  0
  195.6163  173.6235  141.0728 C   0  0  0  0  0  0  0  0  0  0  0  0
  182.5908  178.8991  147.2773 N   0  0  0  0  0  0  0  0  0  0  0  0
  190.4032  174.1759  146.3371 C   0  0  0  0  0  0  0  0  0  0  0  0
  190.8145  178.0552  142.0094 C   0  0  0  0  0  0  0  0  0  0  0  0
  192.8664  177.2340  142.8969 C   0  0  0  0  0  0  0  0  0  0  0  0
  190.9116  179.0473  143.0053 O   0  0  0  0  0  0  0  0  0  0  0  0
  194.2439  176.6708  142.5362 C   0  0  0  0  0  0  0  0  0  0  0  0
  190.1944  177.8828  143.3691 C   0  0  0  0  0  0  0  0  0  0  0  0
  194.2650  173.1892  141.6046 C   0  0  0  0  0  0  0  0  0  0  0  0
  195.3403  178.0827  142.1852 S   0  0  0  0  0  0  0  0  0  0  0  0
  195.6727  175.1474  141.1444 C   0  0  0  0  0  0  0  0  0  0  0  0
  186.4596  176.9198  145.7338 C   0  0  0  0  0  0  0  0  0  0  0  0
  184.4935  178.1618  146.7250 C   0  0  0  0  0  0  0  0  0  0  0  0
  1 13  2  0
  2 24  1  0
  2  5  1  0
  3 15  1  0
  4 13  1  0
  5 12  2  0
  6 22  1  0
  7  4  2  0
  8 20  1  0
 10 30  4  0
 11 16  2  0
 14  3  1  0
 15 16  1  0
 15  8  1  0
 16  1  1  0
 17 10  4  0
 17 19  4  0
 18 28  1  0
 18 26  1  0
 19  9  4  0
 21  6  1  0
 21 23  1  0
 21 25  1  0
 22 24  1  0
 22 14  1  0
 24 27  1  0
 25 23  1  0
 25  3  1  0
 26  5  1  0
 28  2  1  0
 29 11  2  0
 29  7  1  0
 30  9  4  0
 30  7  1  0
M  END
$$$$

     RDKit          3D

 30 33  0  0  0  0  0  0  0  0999 V2000
  187.3161  180.9115  140.9719 C   0  0  0  0  0  0  0  0  0  0  0  0
  185.5837  180.3983  142.6560 C   0  0  0  0  0  0  0  0  0  0  0  0
  186.1220  180.2089  143.9311 C   0  0  0  0  0  0  0  0  0  0  0  0
  187.3343  178.0860  145.9810 N   0  0  0  0  0  0  0  0  0  0  0  0
  184.5428  179.5693  142.2076 C   0  0  0  0  0  0  0  0  0  0  0  0
  190.1821  176.1886  146.8773 C   0  0  0  0  0  0  0  0  0  0  0  0
  185.6069  179.2049  144.7522 C   0  0  0  0  0  0  0  0  0  0  0  0
  191.9079  174.7857  147.5927 C   0  0  0  0  0  0  0  0  0  0  0  0
  187.9556  176.7353  141.9018 C   0  0  0  0  0  0  0  0  0  0  0  0
  184.6038  178.4049  144.3017 N   0  0  0  0  0  0  0  0  0  0  0  0
  191.6237  174.4801  146.1176 C   0  0  0  0  0  0  0  0  0  0  0  0
  188.8518  177.5700  143.0530 S   0  0  0  0  0  0  0  0  0  0  0  0
  193.2495  175.2872  147.7425 N   0  0  0  0  0  0  0  0  0  0  0  0
  184.0047  179.7532  140.9285 O   0  0  0  0  0  0  0  0  0  0  0  0
  189.1422  176.9704  147.0013 C   0  0  0  0  0  0  0  0  0  0  0  0
  194.6598  177.0730  148.5633 C   0  0  0  0  0  0  0  0  0  0  0  0
  186.9031  177.3254  141.0357 C   0  0  0  0  0  0  0  0  0  0  0  0
  190.8181  176.1747  144.4926 C   0  0  0  0  0  0  0  0  0  0  0  0
  189.3500  175.1157  142.7636 N   0  0  0  0  0  0  0  0  0  0  0  0
  191.0159  175.8638  147.9726 N   0  0  0  0  0  0  0  0  0  0  0  0
  190.4252  175.3294  145.6951 C   0  0  0  0  0  0  0  0  0  0  0  0
  182.9706  178.9308  140.4027 C   0  0  0  0  0  0  0  0  0  0  0  0
  188.1069  177.7504  147.1256 C   0  0  0  0  0  0  0  0  0  0  0  0
  184.0658  178.5654  143.0633 C   0  0  0  0  0  0  0  0  0  0  0  0
  188.3603  175.4074  141.8768 C   0  0  0  0  0  0  0  0  0  0  0  0
  186.1929  178.9727  146.0994 C   0  0  0  0  0  0  0  0  0  0  0  0
  191.8097  177.1208  148.9252 S   0  0  0  0  0  0  0  0  0  0  0  0
  186.1530  181.4626  141.7765 C   0  0  0  0  0  0  0  0  0  0  0  0
  193.3458  176.4000  148.3698 C   0  0  0  0  0  0  0  0  0  0  0  0
  189.7186  176.1963  143.4883 C   0  0  0  0  0  0  0  0  0  0  0  0
  1 28  1  0
  2  5  4  0
  2  3  4  0
  3  7  4  0
  4 23  1  0
  5 24  4  0
  6 15  2  0
  6 20  1  0
  7 10  4  0
  7 26  1  0
  8 11  1  0
  8 13  1  0
  8 20  1  0
  9 25  4  0
  9 12  4  0
 12 30  4  0
 13 29  2  0
 14 22  1  0
 14  5  1  0
 15 23  2  0
 17  9  1  0
 19 30  4  0
 20 27  1  0
 21 18  1  0
 21 11  1  0
 21  6  1  0
 24 10  4  0
 25 19  4  0
 26  4  1  0
 28  2  1  0
 29 27  1  0
 29 16  1  0
 30 18  1  0
M  END
$$$$

     RDKit          3D

 30 33  0  0  0  0  0  0  0  0999 V2000
  188.8589  176.2576  139.1532 C   0  0  0  0  0  0  0  0  0  0  0  0
  186.9761  177.4208  144.1361 N   0  0  0  0  0  0  0  0  0  0  0  0
  190.1413  175.6118  138.6881 C   0  0  0  0  0  0  0  0  0  0  0  0
  190.9480  177.5371  139.8318 C   0  0  0  0  0  0  0  0  0  0  0  0
  190.3555  179.4746  143.0781 C   0  0  0  0  0  0  0  0  0  0  0  0
  193.6578  175.1588  148.5824 O   0  0  0  0  0  0  0  0  0  0  0  0
  190.8622  178.3635  142.1834 C   0  0  0  0  0  0  0  0  0  0  0  0
  190.4535  178.6432  140.7495 C   0  0  0  0  0  0  0  0  0  0  0  0
  190.0594  174.6742  146.5310 N   0  0  0  0  0  0  0  0  0  0  0  0
  188.1659  177.6846  146.2180 C   0  0  0  0  0  0  0  0  0  0  0  0
  190.8988  175.0559  139.8161 N   0  0  0  0  0  0  0  0  0  0  0  0
  190.1099  176.2813  139.9987 C   0  0  0  0  0  0  0  0  0  0  0  0
  187.6424  178.8771  146.4433 O   0  0  0  0  0  0  0  0  0  0  0  0
  191.7204  175.6400  149.8072 N   0  0  0  0  0  0  0  0  0  0  0  0
  188.4804  175.7647  145.0323 N   0  0  0  0  0  0  0  0  0  0  0  0
  186.7841  179.3882  145.5531 C   0  0  0  0  0  0  0  0  0  0  0  0
  191.5608  173.5219  147.8709 O   0  0  0  0  0  0  0  0  0  0  0  0
  184.9966  180.4781  143.7220 C   0  0  0  0  0  0  0  0  0  0  0  0
  186.2353  180.6133  145.7669 N   0  0  0  0  0  0  0  0  0  0  0  0
  189.0544  176.9423  146.9528 C   0  0  0  0  0  0  0  0  0  0  0  0
  186.4358  178.6545  144.3714 C   0  0  0  0  0  0  0  0  0  0  0  0
  185.5384  179.2174  143.4656 C   0  0  0  0  0  0  0  0  0  0  0  0
  189.2111  175.7750  146.1810 C   0  0  0  0  0  0  0  0  0  0  0  0
  185.3589  181.1653  144.8844 C   0  0  0  0  0  0  0  0  0  0  0  0
  184.0390  181.0875  142.7631 C   0  0  0  0  0  0  0  0  0  0  0  0
  193.9235  175.1832  150.9415 C   0  0  0  0  0  0  0  0  0  0  0  0
  190.8052  175.5518  148.7428 N   0  0  0  0  0  0  0  0  0  0  0  0
  187.8386  176.9377  145.0575 C   0  0  0  0  0  0  0  0  0  0  0  0
  190.8534  174.5521  147.7171 C   0  0  0  0  0  0  0  0  0  0  0  0
  193.1075  175.3034  149.7056 C   0  0  0  0  0  0  0  0  0  0  0  0
  1 12  1  0
  2 21  4  0
  2 28  4  0
  3  1  1  0
  3 12  1  0
  3 11  1  0
  4  8  1  0
  5  7  1  0
  6 30  2  0
  8  7  1  0
  9 29  1  0
 10 13  4  0
 10 20  4  0
 12 11  1  0
 12  4  1  0
 14 30  1  0
 15 23  4  0
 16 19  4  0
 16 13  4  0
 17 29  2  0
 18 24  4  0
 21 16  4  0
 22 18  4  0
 22 21  4  0
 23 20  4  0
 23  9  1  0
 24 19  4  0
 25 18  1  0
 27 14  1  0
 28 15  4  0
 28 10  1  0
 29 27  1  0
 30 26  1  0
M  END
$$$$

     RDKit          3D

 30 29  0  0  0  0  0  0  0  0999 V2000
  190.8629  176.8785  144.6162 C   0  0  0  0  0  0  0  0  0  0  0  0
  189.5850  176.3948  141.8261 C   0  0  0  0  0  0  0  0  0  0  0  0
  192.6463  175.1686  147.6813 O   0  0  0  0  0  0  0  0  0  0  0  0
  186.2079  178.3447  146.2467 C   0  0  0  0  0  0  0  0  0  0  0  0
  192.0966  176.1151  145.9136 C   0  0  0  0  0  0  0  0  0  0  0  0
  184.9405  178.1480  145.5361 C   0  0  0  0  0  0  0  0  0  0  0  0
  195.3362  177.6213  149.8879 C   0  0  0  0  0  0  0  0  0  0  0  0
  183.9160  177.7850  146.1730 O   0  0  0  0  0  0  0  0  0  0  0  0
  187.4146  178.6377  144.0724 C   0  0  0  0  0  0  0  0  0  0  0  0
  188.8639  177.6467  142.2913 C   0  0  0  0  0  0  0  0  0  0  0  0
  192.5002  176.4141  147.7934 C   0  0  0  0  0  0  0  0  0  0  0  0
  189.6407  177.7610  144.4707 C   0  0  0  0  0  0  0  0  0  0  0  0
  183.6434  178.4737  143.4259 C   0  0  0  0  0  0  0  0  0  0  0  0
  185.9922  179.0956  142.0429 C   0  0  0  0  0  0  0  0  0  0  0  0
  193.4198  177.2159  148.5437 N   0  0  0  0  0  0  0  0  0  0  0  0
  190.8428  176.1731  142.6449 C   0  0  0  0  0  0  0  0  0  0  0  0
  191.5317  176.7339  143.2654 C   0  0  0  0  0  0  0  0  0  0  0  0
  194.8010  175.2841  149.5088 C   0  0  0  0  0  0  0  0  0  0  0  0
  189.1529  178.0937  145.7336 O   0  0  0  0  0  0  0  0  0  0  0  0
  191.4324  176.9539  146.3544 N   0  0  0  0  0  0  0  0  0  0  0  0
  187.3337  178.6083  145.5795 C   0  0  0  0  0  0  0  0  0  0  0  0
  194.5490  176.7404  149.2884 C   0  0  0  0  0  0  0  0  0  0  0  0
  192.1018  177.6879  144.2931 C   0  0  0  0  0  0  0  0  0  0  0  0
  184.8746  178.4363  144.0942 C   0  0  0  0  0  0  0  0  0  0  0  0
  186.0617  178.7435  143.3976 C   0  0  0  0  0  0  0  0  0  0  0  0
  184.7607  179.1349  141.3840 C   0  0  0  0  0  0  0  0  0  0  0  0
  194.0126  174.7906  150.7075 C   0  0  0  0  0  0  0  0  0  0  0  0
  183.5878  178.8191  142.0735 C   0  0  0  0  0  0  0  0  0  0  0  0
  191.5401  174.9168  142.1682 C   0  0  0  0  0  0  0  0  0  0  0  0
  188.1481  177.3878  143.6067 C   0  0  0  0  0  0  0  0  0  0  0  0
  1 23  1  0
  1 12  1  0
  2 10  1  0
  2 16  1  0
  5 20  3  0
  6  4  1  0
  6  8  2  0
  9 30  1  0
  9 21  1  0
 10 30  1  0
 11  3  2  0
 11 15  1  0
 12 19  1  0
 13 24  4  0
 14 25  4  0
 15 22  1  0
 16 29  1  0
 17  1  1  0
 17 23  1  0
 18 22  1  0
 18 27  1  0
 21  4  2  0
 22  7  2  0
 24  6  1  0
 25  9  1  0
 25 24  4  0
 26 14  4  0
 26 28  4  0
 28 13  4  0
M  END
$$$$

     RDKit          3D

 30 35  0  0  0  0  0  0  0  0999 V2000
  184.8226  178.3728  146.3177 C   0  0  0  0  0  0  0  0  0  0  0  0
  184.8668  176.5845  144.4371 C   0  0  0  0  0  0  0  0  0  0  0  0
  189.0595  178.0070  146.3672 C   0  0  0  0  0  0  0  0  0  0  0  0
  189.4317  179.4590  148.0156 C   0  0  0  0  0  0  0  0  0  0  0  0
  182.8633  177.4388  145.3365 O   0  0  0  0  0  0  0  0  0  0  0  0
  188.4474  178.8548  147.2366 C   0  0  0  0  0  0  0  0  0  0  0  0
  191.6348  175.9128  143.6384 C   0  0  0  0  0  0  0  0  0  0  0  0
  195.5402  176.2544  138.5697 C   0  0  0  0  0  0  0  0  0  0  0  0
  186.3187  178.2157  146.3256 C   0  0  0  0  0  0  0  0  0  0  0  0
  187.0625  178.9889  147.2450 C   0  0  0  0  0  0  0  0  0  0  0  0
  189.1863  176.3209  144.5144 C   0  0  0  0  0  0  0  0  0  0  0  0
  184.1206  177.4509  145.3622 C   0  0  0  0  0  0  0  0  0  0  0  0
  191.9172  177.0949  142.7296 C   0  0  0  0  0  0  0  0  0  0  0  0
  192.5191  175.9450  140.7347 O   0  0  0  0  0  0  0  0  0  0  0  0
  195.2851  176.8367  140.7905 C   0  0  0  0  0  0  0  0  0  0  0  0
  194.2375  177.1750  141.7488 N   0  0  0  0  0  0  0  0  0  0  0  0
  192.8871  176.7033  141.6726 C   0  0  0  0  0  0  0  0  0  0  0  0
  189.8637  175.2033  145.3124 C   0  0  0  0  0  0  0  0  0  0  0  0
  188.3929  177.2215  145.4455 C   0  0  0  0  0  0  0  0  0  0  0  0
  193.0445  179.4351  148.4506 C   0  0  0  0  0  0  0  0  0  0  0  0
  186.9828  177.3304  145.4167 C   0  0  0  0  0  0  0  0  0  0  0  0
  195.5724  175.3485  140.7975 C   0  0  0  0  0  0  0  0  0  0  0  0
  190.6237  178.8933  147.5360 C   0  0  0  0  0  0  0  0  0  0  0  0
  190.7103  176.3302  144.7640 C   0  0  0  0  0  0  0  0  0  0  0  0
  191.2490  177.2187  145.8031 N   0  0  0  0  0  0  0  0  0  0  0  0
  195.6826  174.9603  139.3426 C   0  0  0  0  0  0  0  0  0  0  0  0
  194.8918  177.2208  139.4419 N   0  0  0  0  0  0  0  0  0  0  0  0
  190.3688  178.0188  146.5418 N   0  0  0  0  0  0  0  0  0  0  0  0
  191.9398  179.1911  148.0339 C   0  0  0  0  0  0  0  0  0  0  0  0
  186.1963  176.5306  144.4605 C   0  0  0  0  0  0  0  0  0  0  0  0
  1  9  1  0
  2 12  1  0
  3  6  4  0
  5 12  2  0
  6 10  4  0
  6  4  4  0
  8 27  1  0
  8 26  1  0
  9 10  4  0
 11 18  1  0
 11 19  1  0
 12  1  1  0
 13  7  1  0
 15 22  1  0
 15 16  1  0
 16 17  1  0
 17 14  2  0
 17 13  1  0
 18 24  1  0
 19 21  4  0
 19  3  4  0
 21  9  4  0
 23 29  1  0
 23  4  4  0
 24  7  1  0
 24 11  1  0
 24 25  1  0
 25 28  1  0
 26 22  1  0
 27 15  1  0
 28  3  4  0
 28 23  4  0
 29 20  3  0
 30  2  2  0
 30 21  1  0
M  END
$$$$

     RDKit          3D

 30 33  0  0  0  0  0  0  0  0999 V2000
  184.1412  179.2805  144.1581 C   0  0  0  0  0  0  0  0  0  0  0  0
  189.6850  177.4010  143.4126 O   0  0  0  0  0  0  0  0  0  0  0  0
  190.4212  176.3203  142.9171 C   0  0  0  0  0  0  0  0  0  0  0  0
  190.0562  176.0755  141.4640 C   0  0  0  0  0  0  0  0  0  0  0  0
  188.1681  177.8712  145.1879 C   0  0  0  0  0  0  0  0  0  0  0  0
  192.5994  173.5682  149.0165 C   0  0  0  0  0  0  0  0  0  0  0  0
  185.0751  179.9202  144.7992 N   0  0  0  0  0  0  0  0  0  0  0  0
  185.2369  177.2056  143.3727 N   0  0  0  0  0  0  0  0  0  0  0  0
  190.0270  175.9401  146.5945 O   0  0  0  0  0  0  0  0  0  0  0  0
  188.2763  179.7420  146.7100 C   0  0  0  0  0  0  0  0  0  0  0  0
  190.2269  178.2737  146.5441 N   0  0  0  0  0  0  0  0  0  0  0  0
  190.7643  176.9570  146.7072 C   0  0  0  0  0  0  0  0  0  0  0  0
  186.2611  179.3654  145.3863 C   0  0  0  0  0  0  0  0  0  0  0  0
  188.6705  176.8407  144.2020 C   0  0  0  0  0  0  0  0  0  0  0  0
  188.9423  180.4984  147.6178 F   0  0  0  0  0  0  0  0  0  0  0  0
  186.4455  177.3475  143.8163 C   0  0  0  0  0  0  0  0  0  0  0  0
  186.9922  180.1359  146.3000 C   0  0  0  0  0  0  0  0  0  0  0  0
  193.8991  177.4631  145.7853 C   0  0  0  0  0  0  0  0  0  0  0  0
  192.9542  176.4490  145.9197 O   0  0  0  0  0  0  0  0  0  0  0  0
  188.8872  178.6014  146.1540 C   0  0  0  0  0  0  0  0  0  0  0  0
  187.5195  176.5883  143.3839 O   0  0  0  0  0  0  0  0  0  0  0  0
  192.2151  176.8079  147.0499 C   0  0  0  0  0  0  0  0  0  0  0  0
  186.8620  178.2012  144.8960 C   0  0  0  0  0  0  0  0  0  0  0  0
  184.0718  177.7882  144.0314 C   0  0  0  0  0  0  0  0  0  0  0  0
  192.3886  174.4538  147.9544 C   0  0  0  0  0  0  0  0  0  0  0  0
  192.9036  175.4397  150.5216 C   0  0  0  0  0  0  0  0  0  0  0  0
  192.8583  174.0602  150.3000 C   0  0  0  0  0  0  0  0  0  0  0  0
  192.6932  176.3269  149.4597 C   0  0  0  0  0  0  0  0  0  0  0  0
  192.4384  175.8385  148.1725 C   0  0  0  0  0  0  0  0  0  0  0  0
  191.8967  176.6416  142.9952 C   0  0  0  0  0  0  0  0  0  0  0  0
  1  7  2  0
  3  2  1  0
  4  3  1  0
  5 23  4  0
  5 20  4  0
  6 27  4  0
  8 16  2  0
  8 24  1  0
  9 12  2  0
 10 15  1  0
 12 11  1  0
 13  7  1  0
 13 17  4  0
 14  2  1  0
 14  5  1  0
 16 23  1  0
 17 10  4  0
 18 19  1  0
 19 22  1  0
 20 11  1  0
 20 10  4  0
 21 14  1  0
 21 16  1  0
 22 12  1  0
 22 29  1  0
 23 13  4  0
 24  1  1  0
 25  6  4  0
 26 27  4  0
 28 26  4  0
 29 25  4  0
 29 28  4  0
 30  3  1  0
M  END
$$$$

     RDKit          3D

 30 36  0  0  0  0  0  0  0  0999 V2000
  189.9249  177.0576  145.5019 C   0  0  0  0  0  0  0  0  0  0  0  0
  190.5001  174.4218  148.7527 Cl  0  0  0  0  0  0  0  0  0  0  0  0
  189.1468  177.2787  142.3533 N   0  0  0  0  0  0  0  0  0  0  0  0
  188.7306  177.5156  147.9364 C   0  0  0  0  0  0  0  0  0  0  0  0
  187.6801  178.2422  145.7428 N   0  0  0  0  0  0  0  0  0  0  0  0
  190.2904  177.3198  143.2105 C   0  0  0  0  0  0  0  0  0  0  0  0
  192.3095  176.4311  148.8034 C   0  0  0  0  0  0  0  0  0  0  0  0
  190.7378  178.2337  149.2014 N   0  0  0  0  0  0  0  0  0  0  0  0
  184.7449  177.0792  143.9712 N   0  0  0  0  0  0  0  0  0  0  0  0
  191.4079  176.7149  142.7728 C   0  0  0  0  0  0  0  0  0  0  0  0
  185.7299  177.1832  142.9533 C   0  0  0  0  0  0  0  0  0  0  0  0
  192.5457  177.7942  145.5587 C   0  0  0  0  0  0  0  0  0  0  0  0
  187.9651  178.1143  142.5541 C   0  0  0  0  0  0  0  0  0  0  0  0
  185.3859  177.3152  145.0764 C   0  0  0  0  0  0  0  0  0  0  0  0
  186.8094  177.5886  144.8102 C   0  0  0  0  0  0  0  0  0  0  0  0
  193.2603  177.0531  144.5176 C   0  0  0  0  0  0  0  0  0  0  0  0
  191.2326  177.8864  145.5332 C   0  0  0  0  0  0  0  0  0  0  0  0
  187.0011  177.4765  143.4988 C   0  0  0  0  0  0  0  0  0  0  0  0
  193.3273  178.6323  146.5027 C   0  0  0  0  0  0  0  0  0  0  0  0
  192.9887  178.5369  149.7685 O   0  0  0  0  0  0  0  0  0  0  0  0
  188.7800  177.5334  146.4022 C   0  0  0  0  0  0  0  0  0  0  0  0
  190.1279  178.0399  144.5120 C   0  0  0  0  0  0  0  0  0  0  0  0
  192.0787  177.8047  149.3012 C   0  0  0  0  0  0  0  0  0  0  0  0
  184.2103  177.7072  141.0819 C   0  0  0  0  0  0  0  0  0  0  0  0
  189.9618  177.0945  148.7603 C   0  0  0  0  0  0  0  0  0  0  0  0
  187.0492  178.2152  140.9549 S   0  0  0  0  0  0  0  0  0  0  0  0
  185.5545  177.5435  141.7004 C   0  0  0  0  0  0  0  0  0  0  0  0
  192.7638  176.5895  143.3633 C   0  0  0  0  0  0  0  0  0  0  0  0
  190.9536  176.0551  148.2119 C   0  0  0  0  0  0  0  0  0  0  0  0
  188.2042  176.3375  147.1490 C   0  0  0  0  0  0  0  0  0  0  0  0
  1 17  1  0
  1 21  1  0
  3  6  1  0
  4 30  1  0
  5 21  1  0
  7 23  1  0
  9 14  2  0
 10  6  2  0
 11  9  1  0
 12 17  2  0
 12 19  1  0
 13  3  1  0
 13 18  1  0
 15  5  1  0
 15 14  1  0
 16 12  1  0
 18 11  1  0
 18 15  2  0
 21  4  1  0
 21 30  1  0
 22  6  1  0
 22 17  1  0
 22  1  1  0
 23  8  1  0
 23 20  2  0
 24 27  1  0
 25  4  1  0
 25  8  1  0
 26 13  1  0
 26 27  1  0
 27 11  2  0
 28 10  1  0
 28 16  2  0
 29  2  1  0
 29  7  1  0
 29 25  1  0
M  END
$$$$

     RDKit          3D

 30 32  0  0  0  0  0  0  0  0999 V2000
  193.7465  175.8502  146.4895 C   0  0  0  0  0  0  0  0  0  0  0  0
  192.9384  177.0513  148.4307 C   0  0  0  0  0  0  0  0  0  0  0  0
  186.5166  176.7213  147.2832 C   0  0  0  0  0  0  0  0  0  0  0  0
  190.0698  176.3264  146.1461 N   0  0  0  0  0  0  0  0  0  0  0  0
  189.1026  178.3433  143.9658 C   0  0  0  0  0  0  0  0  0  0  0  0
  183.7139  176.8474  145.0105 O   0  0  0  0  0  0  0  0  0  0  0  0
  191.8966  178.7999  144.6318 O   0  0  0  0  0  0  0  0  0  0  0  0
  192.4463  175.8012  145.9783 C   0  0  0  0  0  0  0  0  0  0  0  0
  190.9566  178.0654  140.6137 C   0  0  0  0  0  0  0  0  0  0  0  0
  188.9669  176.8384  146.8443 N   0  0  0  0  0  0  0  0  0  0  0  0
  190.6250  177.4069  139.4290 O   0  0  0  0  0  0  0  0  0  0  0  0
  187.6322  176.7906  146.3208 C   0  0  0  0  0  0  0  0  0  0  0  0
  195.6204  176.5374  148.3545 Cl  0  0  0  0  0  0  0  0  0  0  0  0
  188.8080  179.2796  144.7562 O   0  0  0  0  0  0  0  0  0  0  0  0
  190.1921  178.5554  142.9593 C   0  0  0  0  0  0  0  0  0  0  0  0
  191.6383  177.0027  147.9194 C   0  0  0  0  0  0  0  0  0  0  0  0
  190.2372  177.8566  137.2300 O   0  0  0  0  0  0  0  0  0  0  0  0
  191.3884  176.3771  146.6896 C   0  0  0  0  0  0  0  0  0  0  0  0
  187.3754  176.8219  144.9910 C   0  0  0  0  0  0  0  0  0  0  0  0
  191.5430  178.0659  143.4986 C   0  0  0  0  0  0  0  0  0  0  0  0
  192.2641  177.5037  141.1618 C   0  0  0  0  0  0  0  0  0  0  0  0
  188.4079  177.0903  144.0362 N   0  0  0  0  0  0  0  0  0  0  0  0
  186.0065  176.5136  144.4367 C   0  0  0  0  0  0  0  0  0  0  0  0
  190.5759  178.4127  138.4625 C   0  0  0  0  0  0  0  0  0  0  0  0
  186.7460  176.6634  148.5199 O   0  0  0  0  0  0  0  0  0  0  0  0
  185.1692  176.7468  146.8185 N   0  0  0  0  0  0  0  0  0  0  0  0
  193.9924  176.4756  147.7152 C   0  0  0  0  0  0  0  0  0  0  0  0
  192.6384  178.2307  142.4476 C   0  0  0  0  0  0  0  0  0  0  0  0
  184.8979  176.7327  145.4196 C   0  0  0  0  0  0  0  0  0  0  0  0
  189.8426  177.8670  141.6368 C   0  0  0  0  0  0  0  0  0  0  0  0
  1 27  4  0
  3 25  2  0
  4 10  1  0
  4 18  1  0
  5 14  2  0
  5 22  1  0
  8 18  4  0
  8  1  4  0
  9 11  1  0
  9 21  1  0
  9 30  1  0
 10 12  1  0
 12  3  1  0
 15  5  1  0
 16  2  4  0
 17 24  1  0
 18 16  4  0
 19 12  2  0
 20 15  1  0
 20  7  1  0
 21 28  1  0
 22 19  1  0
 23 19  1  0
 23 29  1  0
 24 11  1  0
 26  3  1  0
 27  2  4  0
 27 13  1  0
 28 20  1  0
 29  6  2  0
 29 26  1  0
 30 15  1  0
M  END
$$$$

     RDKit          3D

 30 33  0  0  0  0  0  0  0  0999 V2000
  189.7914  174.9687  144.5319 O   0  0  0  0  0  0  0  0  0  0  0  0
  192.4673  175.8744  148.3635 C   0  0  0  0  0  0  0  0  0  0  0  0
  184.4059  176.8325  147.2562 N   0  0  0  0  0  0  0  0  0  0  0  0
  190.9694  177.9434  140.9585 C   0  0  0  0  0  0  0  0  0  0  0  0
  192.2762  178.5689  140.5004 C   0  0  0  0  0  0  0  0  0  0  0  0
  191.6553  177.0366  150.2793 F   0  0  0  0  0  0  0  0  0  0  0  0
  192.4783  175.6957  146.9775 C   0  0  0  0  0  0  0  0  0  0  0  0
  189.0661  177.5920  142.8217 N   0  0  0  0  0  0  0  0  0  0  0  0
  191.6685  176.8683  148.9350 C   0  0  0  0  0  0  0  0  0  0  0  0
  187.8179  179.2867  143.8005 O   0  0  0  0  0  0  0  0  0  0  0  0
  188.8534  177.8142  145.3704 C   0  0  0  0  0  0  0  0  0  0  0  0
  192.7228  177.7608  138.3031 O   0  0  0  0  0  0  0  0  0  0  0  0
  185.2689  175.3514  145.5920 C   0  0  0  0  0  0  0  0  0  0  0  0
  186.4297  176.1225  145.5191 C   0  0  0  0  0  0  0  0  0  0  0  0
  192.9749  177.6767  139.5326 C   0  0  0  0  0  0  0  0  0  0  0  0
  190.9029  177.5302  146.7311 C   0  0  0  0  0  0  0  0  0  0  0  0
  185.5281  177.5988  147.1969 C   0  0  0  0  0  0  0  0  0  0  0  0
  190.5306  175.8647  144.0429 C   0  0  0  0  0  0  0  0  0  0  0  0
  188.5433  178.2713  143.9737 C   0  0  0  0  0  0  0  0  0  0  0  0
  190.8952  177.6994  148.1199 C   0  0  0  0  0  0  0  0  0  0  0  0
  191.2372  176.8195  141.8503 N   0  0  0  0  0  0  0  0  0  0  0  0
  190.1167  178.4815  145.8828 C   0  0  0  0  0  0  0  0  0  0  0  0
  191.6860  176.5047  146.1570 C   0  0  0  0  0  0  0  0  0  0  0  0
  193.8803  176.7286  139.9900 O   0  0  0  0  0  0  0  0  0  0  0  0
  190.2019  175.8061  141.5551 C   0  0  0  0  0  0  0  0  0  0  0  0
  190.1198  176.5653  142.7908 C   0  0  0  0  0  0  0  0  0  0  0  0
  186.5656  177.2602  146.3245 C   0  0  0  0  0  0  0  0  0  0  0  0
  184.2560  175.7274  146.4769 C   0  0  0  0  0  0  0  0  0  0  0  0
  191.6999  176.2942  144.7434 N   0  0  0  0  0  0  0  0  0  0  0  0
  187.7424  178.0715  146.2790 N   0  0  0  0  0  0  0  0  0  0  0  0
  1 18  2  0
  2  9  4  0
  3 17  4  0
  4 21  1  0
  5  4  1  0
  7  2  4  0
  8 19  1  0
  9  6  1  0
 10 19  2  0
 11 30  1  0
 11 22  1  0
 12 15  2  0
 13 14  4  0
 13 28  4  0
 14 27  4  0
 15 24  1  0
 15  5  1  0
 16 20  4  0
 18 29  1  0
 19 11  1  0
 20  9  4  0
 21 25  1  0
 21 26  1  0
 22 16  1  0
 23  7  4  0
 23 16  4  0
 26 25  1  0
 26  8  1  0
 26 18  1  0
 27 30  1  0
 27 17  4  0
 28  3  4  0
 29 23  1  0
M  END
$$$$
