
     RDKit          3D

 38 40  0  0  0  0  0  0  0  0999 V2000
  182.5551  179.3740  144.2723 C   0  0  0  0  0  0  0  0  0  0  0  0
  192.9420  174.7901  140.5727 C   0  0  0  0  0  0  0  0  0  0  0  0
  192.6163  176.1084  145.4186 C   0  0  0  0  0  0  0  0  0  0  0  0
  194.7204  176.7972  136.8579 C   0  0  0  0  0  0  0  0  0  0  0  0
  191.7889  174.9456  144.9197 C   0  0  0  0  0  0  0  0  0  0  0  0
  190.4489  175.1718  144.2001 C   0  0  0  0  0  0  0  0  0  0  0  0
  191.7169  177.7818  149.4567 O   0  0  0  0  0  0  0  0  0  0  0  0
  194.4750  177.6687  151.0195 O   0  0  0  0  0  0  0  0  0  0  0  0
  195.9389  175.9243  149.4608 O   0  0  0  0  0  0  0  0  0  0  0  0
  189.2423  178.9104  144.6405 S   0  0  0  0  0  0  0  0  0  0  0  0
  182.8261  179.9534  146.6074 C   0  0  0  0  0  0  0  0  0  0  0  0
  189.1141  178.4725  143.0210 C   0  0  0  0  0  0  0  0  0  0  0  0
  183.2967  179.3671  145.4520 C   0  0  0  0  0  0  0  0  0  0  0  0
  194.7175  177.9959  148.4335 O   0  0  0  0  0  0  0  0  0  0  0  0
  189.5659  177.1597  142.9152 C   0  0  0  0  0  0  0  0  0  0  0  0
  194.5830  176.9335  149.5004 P   0  0  0  0  0  0  0  0  0  0  0  0
  191.9832  175.5399  139.7049 C   0  0  0  0  0  0  0  0  0  0  0  0
  191.8932  176.5621  149.1925 C   0  0  0  0  0  0  0  0  0  0  0  0
  195.5379  175.9667  136.0932 O   0  0  0  0  0  0  0  0  0  0  0  0
  181.5820  180.5811  146.6442 C   0  0  0  0  0  0  0  0  0  0  0  0
  195.5366  176.5464  134.8255 C   0  0  0  0  0  0  0  0  0  0  0  0
  194.6149  176.2654  138.2056 N   0  0  0  0  0  0  0  0  0  0  0  0
  193.1703  175.9993  149.2088 O   0  0  0  0  0  0  0  0  0  0  0  0
  190.2825  177.2584  146.6410 C   0  0  0  0  0  0  0  0  0  0  0  0
  189.9903  176.5999  144.1279 C   0  0  0  0  0  0  0  0  0  0  0  0
  181.2985  180.0016  144.2880 C   0  0  0  0  0  0  0  0  0  0  0  0
  183.8162  179.7999  147.7110 C   0  0  0  0  0  0  0  0  0  0  0  0
  190.5712  175.7959  146.9900 C   0  0  0  0  0  0  0  0  0  0  0  0
  193.7368  177.1544  138.9498 C   0  0  0  0  0  0  0  0  0  0  0  0
  185.9624  178.6656  147.4807 O   0  0  0  0  0  0  0  0  0  0  0  0
  190.4821  175.5303  148.7945 S   0  0  0  0  0  0  0  0  0  0  0  0
  180.8145  180.6019  145.4675 C   0  0  0  0  0  0  0  0  0  0  0  0
  192.5720  173.7999  144.4967 N   0  0  0  0  0  0  0  0  0  0  0  0
  184.8786  179.0462  146.9675 C   0  0  0  0  0  0  0  0  0  0  0  0
  191.8784  175.2040  146.4174 C   0  0  0  0  0  0  0  0  0  0  0  0
  184.5438  178.8062  145.6394 O   0  0  0  0  0  0  0  0  0  0  0  0
  192.3412  176.6050  138.9784 C   0  0  0  0  0  0  0  0  0  0  0  0
  189.8452  177.4597  145.2192 C   0  0  0  0  0  0  0  0  0  0  0  0
  1 26  4  0
  1 13  4  0
  2 17  1  0
  4 22  1  0
  5 33  1  0
  5  3  1  0
  5 35  1  0
  6  5  1  0
  6 25  1  0
 11 20  4  0
 11 27  1  0
 12 10  4  0
 13 36  1  0
 13 11  4  0
 14 16  2  0
 15 25  4  0
 15 12  4  0
 16  8  1  0
 16  9  1  0
 17 37  2  3
 18  7  2  0
 18 23  1  0
 19  4  1  0
 21 19  1  0
 22 29  1  0
 23 16  1  0
 24 28  1  0
 25 38  4  0
 26 32  4  0
 28 31  1  0
 31 18  1  0
 32 20  4  0
 34 27  1  0
 34 30  2  0
 35  3  1  0
 35 28  1  0
 36 34  1  0
 37 29  1  0
 38 24  1  0
 38 10  4  0
M  END
$$$$

     RDKit          3D

 38 44  0  0  0  0  0  0  0  0999 V2000
  186.9413  177.9098  149.3822 S   0  0  0  0  0  0  0  0  0  0  0  0
  187.0267  177.8470  145.4519 C   0  0  0  0  0  0  0  0  0  0  0  0
  187.3494  177.8512  146.9169 C   0  0  0  0  0  0  0  0  0  0  0  0
  192.7721  177.6829  152.8969 O   0  0  0  0  0  0  0  0  0  0  0  0
  192.5425  177.4929  142.1127 C   0  0  0  0  0  0  0  0  0  0  0  0
  191.4380  176.7306  141.5049 N   0  0  0  0  0  0  0  0  0  0  0  0
  185.1255  179.3006  146.0559 N   0  0  0  0  0  0  0  0  0  0  0  0
  190.6827  177.6680  140.6743 C   0  0  0  0  0  0  0  0  0  0  0  0
  188.4914  177.3521  147.4558 N   0  0  0  0  0  0  0  0  0  0  0  0
  194.5245  177.8936  139.1547 C   0  0  0  0  0  0  0  0  0  0  0  0
  189.3532  177.6766  144.4811 N   0  0  0  0  0  0  0  0  0  0  0  0
  191.4824  178.7662  143.7469 C   0  0  0  0  0  0  0  0  0  0  0  0
  191.2262  176.8715  138.2202 C   0  0  0  0  0  0  0  0  0  0  0  0
  194.8797  175.1221  138.0233 O   0  0  0  0  0  0  0  0  0  0  0  0
  192.2337  175.8884  138.5829 N   0  0  0  0  0  0  0  0  0  0  0  0
  186.3724  178.2158  147.8286 C   0  0  0  0  0  0  0  0  0  0  0  0
  193.2979  175.9843  136.1367 O   0  0  0  0  0  0  0  0  0  0  0  0
  188.1145  178.3277  144.6229 N   0  0  0  0  0  0  0  0  0  0  0  0
  190.8551  176.5330  142.8560 C   0  0  0  0  0  0  0  0  0  0  0  0
  193.6468  176.1984  137.5918 P   0  0  0  0  0  0  0  0  0  0  0  0
  190.6565  176.4288  149.1713 C   0  0  0  0  0  0  0  0  0  0  0  0
  191.7511  175.9584  150.0668 C   0  0  0  0  0  0  0  0  0  0  0  0
  188.4283  177.3450  148.8097 C   0  0  0  0  0  0  0  0  0  0  0  0
  194.1759  177.7953  137.8071 O   0  0  0  0  0  0  0  0  0  0  0  0
  186.4086  179.7367  144.0958 N   0  0  0  0  0  0  0  0  0  0  0  0
  192.2940  177.0406  150.7639 O   0  0  0  0  0  0  0  0  0  0  0  0
  185.0068  178.6610  147.3742 C   0  0  0  0  0  0  0  0  0  0  0  0
  190.4181  178.6482  144.8320 C   0  0  0  0  0  0  0  0  0  0  0  0
  189.8142  176.7593  139.3603 S   0  0  0  0  0  0  0  0  0  0  0  0
  191.9748  177.3245  143.4928 C   0  0  0  0  0  0  0  0  0  0  0  0
  189.4484  177.1474  143.1047 C   0  0  0  0  0  0  0  0  0  0  0  0
  192.1386  176.7170  152.1134 C   0  0  0  0  0  0  0  0  0  0  0  0
  185.9925  178.8969  145.1671 C   0  0  0  0  0  0  0  0  0  0  0  0
  191.7564  177.9150  144.8980 C   0  0  0  0  0  0  0  0  0  0  0  0
  187.6218  179.3925  143.8027 C   0  0  0  0  0  0  0  0  0  0  0  0
  192.8327  175.3082  149.2268 C   0  0  0  0  0  0  0  0  0  0  0  0
  184.3961  179.6442  148.3553 C   0  0  0  0  0  0  0  0  0  0  0  0
  189.5114  176.8745  149.6753 C   0  0  0  0  0  0  0  0  0  0  0  0
  2 33  1  0
  2  3  1  0
  3  9  4  0
  3 16  4  0
  5 30  1  0
  6  5  1  0
  6 19  1  0
  7 27  1  0
  8  6  1  0
  9 23  4  0
 11 31  1  0
 11 28  1  0
 12 28  1  0
 12 34  1  0
 13 29  1  0
 13 15  1  0
 14 20  1  0
 16  1  4  0
 17 20  2  0
 18 11  1  0
 18  2  1  0
 19 30  1  0
 19 31  1  0
 20 15  1  0
 20 24  1  0
 21 22  1  0
 21 38  2  3
 22 26  1  0
 23 38  1  0
 23  1  4  0
 24 10  1  0
 25 33  1  0
 26 32  1  0
 27 16  1  0
 27 37  1  0
 28 34  1  0
 29  8  1  0
 30 12  1  0
 30 34  1  0
 32  4  1  0
 33  7  2  0
 35 25  2  0
 35 18  1  0
 36 22  1  0
M  END
$$$$

     RDKit          3D

 38 39  0  0  0  0  0  0  0  0999 V2000
  191.9126  177.2547  147.9210 C   0  0  0  0  0  0  0  0  0  0  0  0
  193.2276  176.7575  150.6938 N   0  0  0  0  0  0  0  0  0  0  0  0
  192.6887  176.2069  147.6144 C   0  0  0  0  0  0  0  0  0  0  0  0
  195.0611  176.4289  137.1993 O   0  0  0  0  0  0  0  0  0  0  0  0
  190.0642  177.3062  142.3765 C   0  0  0  0  0  0  0  0  0  0  0  0
  192.4018  175.2045  146.5692 C   0  0  0  0  0  0  0  0  0  0  0  0
  188.3619  176.8378  147.8095 C   0  0  0  0  0  0  0  0  0  0  0  0
  194.5101  176.0830  150.7569 C   0  0  0  0  0  0  0  0  0  0  0  0
  194.3988  175.5781  139.2215 O   0  0  0  0  0  0  0  0  0  0  0  0
  191.5418  175.2380  136.8041 C   0  0  0  0  0  0  0  0  0  0  0  0
  186.9554  176.2717  146.7896 S   0  0  0  0  0  0  0  0  0  0  0  0
  186.2895  179.8626  144.9610 C   0  0  0  0  0  0  0  0  0  0  0  0
  191.1090  174.8345  143.5565 C   0  0  0  0  0  0  0  0  0  0  0  0
  187.0462  177.6400  145.6350 C   0  0  0  0  0  0  0  0  0  0  0  0
  193.8989  174.3535  137.0932 C   0  0  0  0  0  0  0  0  0  0  0  0
  186.7046  179.5085  143.5459 C   0  0  0  0  0  0  0  0  0  0  0  0
  194.5579  173.0615  137.5396 C   0  0  0  0  0  0  0  0  0  0  0  0
  188.4842  176.4729  144.0913 N   0  0  0  0  0  0  0  0  0  0  0  0
  184.9210  180.4643  144.9985 C   0  0  0  0  0  0  0  0  0  0  0  0
  186.3530  178.7121  145.8727 N   0  0  0  0  0  0  0  0  0  0  0  0
  192.2625  178.1297  149.0005 N   0  0  0  0  0  0  0  0  0  0  0  0
  189.7835  174.8277  142.8058 C   0  0  0  0  0  0  0  0  0  0  0  0
  183.9009  179.7279  144.9345 O   0  0  0  0  0  0  0  0  0  0  0  0
  190.7080  177.5902  147.1001 C   0  0  0  0  0  0  0  0  0  0  0  0
  187.3987  178.4382  143.3025 N   0  0  0  0  0  0  0  0  0  0  0  0
  191.1037  173.5755  144.8624 S   0  0  0  0  0  0  0  0  0  0  0  0
  189.6815  176.5116  147.1898 C   0  0  0  0  0  0  0  0  0  0  0  0
  192.4628  174.2738  137.3232 N   0  0  0  0  0  0  0  0  0  0  0  0
  189.1015  176.1980  142.7940 C   0  0  0  0  0  0  0  0  0  0  0  0
  191.9450  176.1995  136.0970 O   0  0  0  0  0  0  0  0  0  0  0  0
  190.0930  175.1117  137.1146 C   0  0  0  0  0  0  0  0  0  0  0  0
  187.7074  177.4874  144.3290 C   0  0  0  0  0  0  0  0  0  0  0  0
  186.4282  180.6452  142.2331 Cl  0  0  0  0  0  0  0  0  0  0  0  0
  194.4847  175.5101  137.8354 C   0  0  0  0  0  0  0  0  0  0  0  0
  184.7702  181.8785  145.0518 N   0  0  0  0  0  0  0  0  0  0  0  0
  193.4219  177.9342  149.8624 C   0  0  0  0  0  0  0  0  0  0  0  0
  189.9147  175.2841  146.7204 C   0  0  0  0  0  0  0  0  0  0  0  0
  191.1903  174.8228  146.1386 C   0  0  0  0  0  0  0  0  0  0  0  0
  1 21  1  0
  2  8  1  0
  3  1  2  0
  4 34  2  0
  6  3  1  0
  7 11  1  0
 10 31  1  0
 10 28  1  0
 12 19  1  0
 12 20  1  0
 13 22  1  0
 13 26  1  0
 14 20  2  0
 14 11  1  0
 15 17  1  0
 15 34  1  0
 15 28  1  0
 16 12  1  0
 18 32  2  3
 19 23  2  0
 21 36  1  0
 22 29  1  0
 24  1  1  0
 25 16  2  0
 25 32  1  0
 26 38  1  0
 27  7  1  0
 27 24  1  0
 29  5  1  0
 29 18  1  0
 30 10  2  0
 32 14  1  0
 33 16  1  0
 34  9  1  0
 35 19  1  0
 36  2  1  0
 37 27  2  0
 38 37  1  0
 38  6  2  0
M  END
$$$$

     RDKit          3D

 38 43  0  0  0  0  0  0  0  0999 V2000
  190.7075  178.9105  145.7404 C   0  0  0  0  0  0  0  0  0  0  0  0
  193.2086  179.0326  148.5448 N   0  0  0  0  0  0  0  0  0  0  0  0
  188.7337  177.3409  145.4083 C   0  0  0  0  0  0  0  0  0  0  0  0
  196.3048  179.1954  151.1595 C   0  0  0  0  0  0  0  0  0  0  0  0
  196.5271  180.6950  151.0259 C   0  0  0  0  0  0  0  0  0  0  0  0
  186.7305  175.7774  144.1389 C   0  0  0  0  0  0  0  0  0  0  0  0
  190.1552  175.6722  140.5652 C   0  0  0  0  0  0  0  0  0  0  0  0
  195.7151  178.7273  149.8419 C   0  0  0  0  0  0  0  0  0  0  0  0
  191.5557  175.8108  140.9797 C   0  0  0  0  0  0  0  0  0  0  0  0
  186.5842  178.3297  148.3169 C   0  0  0  0  0  0  0  0  0  0  0  0
  191.7853  179.3282  146.5330 C   0  0  0  0  0  0  0  0  0  0  0  0
  193.8591  175.9678  140.5564 O   0  0  0  0  0  0  0  0  0  0  0  0
  193.2334  175.6111  137.6692 O   0  0  0  0  0  0  0  0  0  0  0  0
  189.8622  177.8841  146.2034 C   0  0  0  0  0  0  0  0  0  0  0  0
  189.7723  175.7873  139.1216 C   0  0  0  0  0  0  0  0  0  0  0  0
  186.4247  176.3832  145.3596 C   0  0  0  0  0  0  0  0  0  0  0  0
  188.2176  175.2536  142.2751 C   0  0  0  0  0  0  0  0  0  0  0  0
  189.2153  175.4876  141.4591 C   0  0  0  0  0  0  0  0  0  0  0  0
  195.5412  179.9727  148.9738 C   0  0  0  0  0  0  0  0  0  0  0  0
  194.0655  180.8613  147.3368 O   0  0  0  0  0  0  0  0  0  0  0  0
  195.5878  181.1415  149.9242 C   0  0  0  0  0  0  0  0  0  0  0  0
  187.4561  177.2058  145.9693 C   0  0  0  0  0  0  0  0  0  0  0  0
  187.9700  175.9719  143.5251 C   0  0  0  0  0  0  0  0  0  0  0  0
  186.9819  177.7400  147.1232 C   0  0  0  0  0  0  0  0  0  0  0  0
  194.2500  179.9678  148.2081 C   0  0  0  0  0  0  0  0  0  0  0  0
  184.6919  176.7208  147.1924 N   0  0  0  0  0  0  0  0  0  0  0  0
  188.8283  174.8363  138.7812 F   0  0  0  0  0  0  0  0  0  0  0  0
  191.1968  177.7146  148.2309 C   0  0  0  0  0  0  0  0  0  0  0  0
  192.2218  175.7053  138.6170 C   0  0  0  0  0  0  0  0  0  0  0  0
  192.5441  175.8406  140.0768 C   0  0  0  0  0  0  0  0  0  0  0  0
  190.9541  175.6561  138.1934 C   0  0  0  0  0  0  0  0  0  0  0  0
  188.9815  176.7125  144.1829 C   0  0  0  0  0  0  0  0  0  0  0  0
  185.1062  176.1521  145.9845 C   0  0  0  0  0  0  0  0  0  0  0  0
  190.1132  177.3047  147.4518 C   0  0  0  0  0  0  0  0  0  0  0  0
  192.0343  178.7333  147.7835 C   0  0  0  0  0  0  0  0  0  0  0  0
  190.4633  179.5813  144.4284 C   0  0  0  0  0  0  0  0  0  0  0  0
  185.6746  177.5009  147.6714 C   0  0  0  0  0  0  0  0  0  0  0  0
  195.0191  175.8570  139.7416 C   0  0  0  0  0  0  0  0  0  0  0  0
  1 14  4  0
  1 11  4  0
  2 25  1  0
  3 22  4  0
  3 14  1  0
  5  4  1  0
  6 16  4  0
  7 18  2  0
  8  4  1  0
  9  7  1  0
 11 35  4  0
 12 38  1  0
 12 30  1  0
 13 29  1  0
 14 34  4  0
 15 27  1  0
 15  7  1  0
 16 33  4  0
 16 22  4  0
 17 23  1  0
 18 17  2  0
 19 21  1  0
 19  8  1  0
 20 25  2  0
 21  5  1  0
 22 24  4  0
 23  6  4  0
 23 32  4  0
 24 37  4  0
 24 10  1  0
 25 19  1  0
 26 37  4  0
 29 31  2  0
 29 30  1  0
 30  9  2  0
 31 15  1  0
 32  3  4  0
 33 26  4  0
 34 28  4  0
 35 28  4  0
 35  2  1  0
 36  1  1  0
 37 10  1  0
M  END
$$$$

     RDKit          3D

 38 41  0  0  0  0  0  0  0  0999 V2000
  194.3999  177.3684  150.0065 C   0  0  0  0  0  0  0  0  0  0  0  0
  189.0812  177.4909  139.0903 O   0  0  0  0  0  0  0  0  0  0  0  0
  185.6315  177.5514  145.3607 C   0  0  0  0  0  0  0  0  0  0  0  0
  184.8231  177.2810  144.3260 C   0  0  0  0  0  0  0  0  0  0  0  0
  190.4886  176.4568  140.5472 C   0  0  0  0  0  0  0  0  0  0  0  0
  195.5867  178.2502  149.7267 C   0  0  0  0  0  0  0  0  0  0  0  0
  196.2230  177.8930  152.0623 C   0  0  0  0  0  0  0  0  0  0  0  0
  189.2843  175.7150  142.5993 C   0  0  0  0  0  0  0  0  0  0  0  0
  189.6256  179.8910  147.5830 C   0  0  0  0  0  0  0  0  0  0  0  0
  187.6082  176.7745  143.9711 C   0  0  0  0  0  0  0  0  0  0  0  0
  196.4563  178.5020  150.7102 C   0  0  0  0  0  0  0  0  0  0  0  0
  193.0495  178.0771  148.1081 N   0  0  0  0  0  0  0  0  0  0  0  0
  189.3562  178.2411  145.8370 C   0  0  0  0  0  0  0  0  0  0  0  0
  190.9657  175.8541  137.7436 C   0  0  0  0  0  0  0  0  0  0  0  0
  192.2864  176.8578  146.2686 O   0  0  0  0  0  0  0  0  0  0  0  0
  189.9806  176.8797  141.9146 C   0  0  0  0  0  0  0  0  0  0  0  0
  191.4317  181.0846  143.8618 C   0  0  0  0  0  0  0  0  0  0  0  0
  188.2565  179.8295  147.8494 C   0  0  0  0  0  0  0  0  0  0  0  0
  187.1048  177.1675  145.3501 C   0  0  0  0  0  0  0  0  0  0  0  0
  192.3466  177.9642  146.8716 C   0  0  0  0  0  0  0  0  0  0  0  0
  185.1116  178.2802  146.5271 C   0  0  0  0  0  0  0  0  0  0  0  0
  189.7427  175.3784  138.5248 C   0  0  0  0  0  0  0  0  0  0  0  0
  187.4292  178.9827  147.1055 C   0  0  0  0  0  0  0  0  0  0  0  0
  186.0267  178.9584  147.3868 N   0  0  0  0  0  0  0  0  0  0  0  0
  191.9128  179.2877  144.9424 O   0  0  0  0  0  0  0  0  0  0  0  0
  189.9538  174.0850  139.0064 O   0  0  0  0  0  0  0  0  0  0  0  0
  187.9743  178.1842  146.0740 C   0  0  0  0  0  0  0  0  0  0  0  0
  192.3233  180.5301  144.7826 O   0  0  0  0  0  0  0  0  0  0  0  0
  185.3197  176.5716  143.1026 C   0  0  0  0  0  0  0  0  0  0  0  0
  190.1792  179.1037  146.5711 C   0  0  0  0  0  0  0  0  0  0  0  0
  188.7302  176.1447  143.8613 N   0  0  0  0  0  0  0  0  0  0  0  0
  191.6528  179.1649  146.3133 C   0  0  0  0  0  0  0  0  0  0  0  0
  189.3699  176.2782  139.6234 N   0  0  0  0  0  0  0  0  0  0  0  0
  194.8190  176.1273  150.8087 C   0  0  0  0  0  0  0  0  0  0  0  0
  183.8741  178.3438  146.7560 O   0  0  0  0  0  0  0  0  0  0  0  0
  186.7316  177.0368  142.7736 C   0  0  0  0  0  0  0  0  0  0  0  0
  195.8541  176.4105  151.9193 C   0  0  0  0  0  0  0  0  0  0  0  0
  193.7304  176.9430  148.7129 C   0  0  0  0  0  0  0  0  0  0  0  0
  1 38  1  0
  1 34  1  0
  2 33  1  0
  3 21  1  0
  4  3  2  0
  5 16  1  0
  6 11  2  0
  6  1  1  0
  7 37  1  0
  8 31  1  0
  9 18  4  0
 10 31  2  3
 11  7  1  0
 12 38  1  0
 13 30  4  0
 15 20  2  0
 16  8  1  0
 17 28  1  0
 19 10  1  0
 19  3  1  0
 19 27  1  0
 20 12  1  0
 21 35  2  0
 21 24  1  0
 22 14  1  0
 22 26  1  0
 22 33  1  0
 23 18  4  0
 24 23  1  0
 27 13  4  0
 27 23  4  0
 28 25  1  0
 29  4  1  0
 30 32  1  0
 30  9  4  0
 32 25  1  0
 32 20  1  0
 33  5  1  0
 36 29  1  0
 36 10  1  0
 37 34  1  0
M  END
$$$$

     RDKit          3D

 38 42  0  0  0  0  0  0  0  0999 V2000
  190.7029  177.3502  147.6027 C   0  0  0  0  0  0  0  0  0  0  0  0
  189.1466  176.8904  140.0333 C   0  0  0  0  0  0  0  0  0  0  0  0
  189.0275  178.7837  148.5498 N   0  0  0  0  0  0  0  0  0  0  0  0
  185.7783  181.1497  147.2224 O   0  0  0  0  0  0  0  0  0  0  0  0
  193.0687  175.7663  147.5822 C   0  0  0  0  0  0  0  0  0  0  0  0
  190.1067  174.8611  139.2117 O   0  0  0  0  0  0  0  0  0  0  0  0
  187.0986  179.9377  145.7106 N   0  0  0  0  0  0  0  0  0  0  0  0
  190.6945  177.2833  137.1950 O   0  0  0  0  0  0  0  0  0  0  0  0
  193.6373  176.4373  152.4520 C   0  0  0  0  0  0  0  0  0  0  0  0
  188.0073  179.5223  148.0449 C   0  0  0  0  0  0  0  0  0  0  0  0
  188.2695  177.5311  142.1614 O   0  0  0  0  0  0  0  0  0  0  0  0
  190.9357  176.3781  142.4669 C   0  0  0  0  0  0  0  0  0  0  0  0
  190.5637  177.1166  145.1779 C   0  0  0  0  0  0  0  0  0  0  0  0
  188.0694  177.4337  137.0998 O   0  0  0  0  0  0  0  0  0  0  0  0
  186.0166  180.8177  146.0312 C   0  0  0  0  0  0  0  0  0  0  0  0
  189.2120  176.4706  137.3354 P   0  0  0  0  0  0  0  0  0  0  0  0
  190.7705  177.6931  135.8628 C   0  0  0  0  0  0  0  0  0  0  0  0
  189.0708  175.7725  139.0048 C   0  0  0  0  0  0  0  0  0  0  0  0
  191.0269  176.5633  143.9479 N   0  0  0  0  0  0  0  0  0  0  0  0
  189.6693  175.5817  142.1362 C   0  0  0  0  0  0  0  0  0  0  0  0
  193.1417  177.0147  151.1178 C   0  0  0  0  0  0  0  0  0  0  0  0
  195.4828  175.3602  151.1072 C   0  0  0  0  0  0  0  0  0  0  0  0
  188.6369  176.4265  141.3922 C   0  0  0  0  0  0  0  0  0  0  0  0
  194.8188  175.9538  149.8543 C   0  0  0  0  0  0  0  0  0  0  0  0
  191.6320  174.3466  143.4018 O   0  0  0  0  0  0  0  0  0  0  0  0
  189.0361  178.5092  146.3817 C   0  0  0  0  0  0  0  0  0  0  0  0
  191.9354  175.6883  143.1445 C   0  0  0  0  0  0  0  0  0  0  0  0
  189.1297  175.2125  136.2061 O   0  0  0  0  0  0  0  0  0  0  0  0
  191.1937  176.7916  146.4028 C   0  0  0  0  0  0  0  0  0  0  0  0
  193.3630  176.0781  150.0091 N   0  0  0  0  0  0  0  0  0  0  0  0
  191.2936  176.9304  148.9204 C   0  0  0  0  0  0  0  0  0  0  0  0
  189.4671  177.9939  145.1624 C   0  0  0  0  0  0  0  0  0  0  0  0
  189.6333  178.1847  147.5356 N   0  0  0  0  0  0  0  0  0  0  0  0
  185.1600  181.3482  144.9393 C   0  0  0  0  0  0  0  0  0  0  0  0
  192.8052  176.6592  148.7791 C   0  0  0  0  0  0  0  0  0  0  0  0
  187.9988  179.3589  146.6622 C   0  0  0  0  0  0  0  0  0  0  0  0
  194.4956  175.1853  152.2618 C   0  0  0  0  0  0  0  0  0  0  0  0
  192.3436  175.8698  146.4647 C   0  0  0  0  0  0  0  0  0  0  0  0
  1 31  1  0
  2 23  1  0
  7 15  1  0
  7 36  1  0
  8 16  1  0
  9 37  1  0
 10  3  4  0
 12 20  1  0
 12 27  1  0
 12 19  1  0
 13 29  4  0
 15  4  2  0
 16 14  2  0
 16 18  1  0
 17  8  1  0
 18  6  1  0
 18  2  1  0
 19 13  1  0
 21  9  1  0
 22 37  1  0
 23 11  1  0
 23 20  1  0
 24 22  1  0
 26 36  4  0
 26 33  4  0
 27 25  1  0
 27 19  1  0
 28 16  1  0
 29 38  1  0
 29  1  4  0
 30 24  1  0
 30 21  1  0
 31 35  1  0
 32 13  4  0
 32 26  4  0
 33  1  4  0
 33  3  4  0
 34 15  1  0
 35  5  1  0
 35 30  1  0
 36 10  4  0
 38  5  2  0
M  END
$$$$

     RDKit          3D

 38 41  0  0  0  0  0  0  0  0999 V2000
  190.0237  177.2944  147.1639 C   0  0  0  0  0  0  0  0  0  0  0  0
  186.3785  176.8663  136.5100 C   0  0  0  0  0  0  0  0  0  0  0  0
  186.3290  178.6245  139.0872 C   0  0  0  0  0  0  0  0  0  0  0  0
  189.8121  176.2478  143.5808 C   0  0  0  0  0  0  0  0  0  0  0  0
  194.6391  178.4150  150.4561 C   0  0  0  0  0  0  0  0  0  0  0  0
  187.4887  177.6636  136.0978 N   0  0  0  0  0  0  0  0  0  0  0  0
  187.6637  177.5481  140.9079 C   0  0  0  0  0  0  0  0  0  0  0  0
  195.9008  178.0195  151.2104 C   0  0  0  0  0  0  0  0  0  0  0  0
  185.3640  177.5275  138.6667 C   0  0  0  0  0  0  0  0  0  0  0  0
  188.1628  177.4869  142.1584 N   0  0  0  0  0  0  0  0  0  0  0  0
  185.4118  178.8607  142.4434 C   0  0  0  0  0  0  0  0  0  0  0  0
  197.4558  178.7405  152.8251 N   0  0  0  0  0  0  0  0  0  0  0  0
  192.0029  177.7709  148.4534 N   0  0  0  0  0  0  0  0  0  0  0  0
  184.3469  180.9555  141.8480 C   0  0  0  0  0  0  0  0  0  0  0  0
  190.7873  176.9769  148.4071 C   0  0  0  0  0  0  0  0  0  0  0  0
  196.5759  177.8586  153.4905 N   0  0  0  0  0  0  0  0  0  0  0  0
  188.5877  177.9733  144.8596 C   0  0  0  0  0  0  0  0  0  0  0  0
  186.2441  179.4969  141.4052 N   0  0  0  0  0  0  0  0  0  0  0  0
  190.2734  176.6125  145.9579 C   0  0  0  0  0  0  0  0  0  0  0  0
  189.1109  176.5171  142.2921 C   0  0  0  0  0  0  0  0  0  0  0  0
  186.3969  175.6151  136.3616 O   0  0  0  0  0  0  0  0  0  0  0  0
  184.7712  179.5868  141.3600 C   0  0  0  0  0  0  0  0  0  0  0  0
  188.6738  177.0781  135.4948 C   0  0  0  0  0  0  0  0  0  0  0  0
  188.3843  176.4025  139.9140 S   0  0  0  0  0  0  0  0  0  0  0  0
  195.5799  177.3882  152.5315 C   0  0  0  0  0  0  0  0  0  0  0  0
  193.8211  178.1843  149.5696 C   0  0  0  0  0  0  0  0  0  0  0  0
  196.8121  179.1619  151.5910 C   0  0  0  0  0  0  0  0  0  0  0  0
  189.5466  176.9509  144.7855 C   0  0  0  0  0  0  0  0  0  0  0  0
  188.3501  178.6494  146.0564 C   0  0  0  0  0  0  0  0  0  0  0  0
  191.2095  175.6260  145.9135 N   0  0  0  0  0  0  0  0  0  0  0  0
  196.0825  180.4791  151.8404 C   0  0  0  0  0  0  0  0  0  0  0  0
  185.2024  177.5157  137.1564 C   0  0  0  0  0  0  0  0  0  0  0  0
  191.4777  174.9432  144.7731 C   0  0  0  0  0  0  0  0  0  0  0  0
  190.7887  175.2413  143.6006 C   0  0  0  0  0  0  0  0  0  0  0  0
  189.3805  175.7887  141.1254 C   0  0  0  0  0  0  0  0  0  0  0  0
  189.0678  178.3124  147.2032 C   0  0  0  0  0  0  0  0  0  0  0  0
  192.6584  177.4151  149.5827 O   0  0  0  0  0  0  0  0  0  0  0  0
  186.6533  178.4905  140.5058 N   0  0  0  0  0  0  0  0  0  0  0  0
  1 36  4  0
  1 15  1  0
  2 32  1  0
  3 38  1  0
  4 28  4  0
  6  2  1  0
  7 38  1  0
  7 10  4  0
  8  5  1  0
  8 27  1  0
  8 25  1  0
  9  3  1  0
 10 20  4  0
 12 16  1  0
 13 15  1  0
 13 37  1  0
 17 29  4  0
 18 22  1  0
 18 11  1  0
 19  1  4  0
 20  4  1  0
 21  2  2  0
 22 14  1  0
 22 11  1  0
 23  6  1  0
 24  7  4  0
 24 35  4  0
 25 16  1  0
 26 37  1  0
 27 31  1  0
 27 12  1  0
 28 17  4  0
 28 19  4  0
 29 36  4  0
 30 19  4  0
 32  9  1  0
 33 30  4  0
 34  4  4  0
 34 33  4  0
 35 20  4  0
 38 18  1  0
M  END
$$$$

     RDKit          3D

 38 44  0  0  0  0  0  0  0  0999 V2000
  190.9949  175.0044  140.1912 O   0  0  0  0  0  0  0  0  0  0  0  0
  191.0404  176.3618  144.2864 C   0  0  0  0  0  0  0  0  0  0  0  0
  185.5473  180.1725  144.1725 C   0  0  0  0  0  0  0  0  0  0  0  0
  186.4559  178.9890  144.1068 C   0  0  0  0  0  0  0  0  0  0  0  0
  189.2331  177.7847  143.2873 C   0  0  0  0  0  0  0  0  0  0  0  0
  183.2243  180.0734  144.0586 N   0  0  0  0  0  0  0  0  0  0  0  0
  191.1993  172.0394  145.6897 O   0  0  0  0  0  0  0  0  0  0  0  0
  185.5445  180.3953  146.6555 N   0  0  0  0  0  0  0  0  0  0  0  0
  192.3853  173.1040  144.0449 O   0  0  0  0  0  0  0  0  0  0  0  0
  190.8130  174.8678  144.5020 C   0  0  0  0  0  0  0  0  0  0  0  0
  189.2978  179.6604  146.4415 C   0  0  0  0  0  0  0  0  0  0  0  0
  183.5185  180.2410  145.4134 N   0  0  0  0  0  0  0  0  0  0  0  0
  186.9629  180.3569  146.9015 C   0  0  0  0  0  0  0  0  0  0  0  0
  191.4465  173.9604  143.4349 C   0  0  0  0  0  0  0  0  0  0  0  0
  187.7161  179.0645  144.8545 C   0  0  0  0  0  0  0  0  0  0  0  0
  190.4906  174.4094  146.9307 C   0  0  0  0  0  0  0  0  0  0  0  0
  189.9010  178.9106  145.5314 C   0  0  0  0  0  0  0  0  0  0  0  0
  190.2005  176.8512  143.1978 N   0  0  0  0  0  0  0  0  0  0  0  0
  191.4800  174.4424  145.7681 C   0  0  0  0  0  0  0  0  0  0  0  0
  191.0923  175.3620  141.3947 C   0  0  0  0  0  0  0  0  0  0  0  0
  192.1084  174.6956  142.2667 C   0  0  0  0  0  0  0  0  0  0  0  0
  193.8731  174.7426  150.0018 C   0  0  0  0  0  0  0  0  0  0  0  0
  191.2210  174.3362  148.2607 C   0  0  0  0  0  0  0  0  0  0  0  0
  191.8362  175.8045  151.1605 C   0  0  0  0  0  0  0  0  0  0  0  0
  192.6282  175.6008  149.8900 C   0  0  0  0  0  0  0  0  0  0  0  0
  187.8897  179.8047  146.1030 C   0  0  0  0  0  0  0  0  0  0  0  0
  184.3030  180.0202  143.3421 C   0  0  0  0  0  0  0  0  0  0  0  0
  190.2170  176.4294  141.9181 C   0  0  0  0  0  0  0  0  0  0  0  0
  186.1383  177.9470  143.4705 O   0  0  0  0  0  0  0  0  0  0  0  0
  192.0839  173.0915  145.4183 C   0  0  0  0  0  0  0  0  0  0  0  0
  188.6393  177.9768  142.0499 C   0  0  0  0  0  0  0  0  0  0  0  0
  189.9742  180.2176  147.6455 C   0  0  0  0  0  0  0  0  0  0  0  0
  192.7271  176.9176  150.6206 C   0  0  0  0  0  0  0  0  0  0  0  0
  191.8569  175.6786  148.5849 C   0  0  0  0  0  0  0  0  0  0  0  0
  188.9010  178.5362  144.5211 C   0  0  0  0  0  0  0  0  0  0  0  0
  191.9358  171.1473  146.4694 C   0  0  0  0  0  0  0  0  0  0  0  0
  189.2642  177.1017  141.1734 C   0  0  0  0  0  0  0  0  0  0  0  0
  184.9276  180.2704  145.5182 C   0  0  0  0  0  0  0  0  0  0  0  0
  1 20  2  0
  3 27  1  0
  3 38  1  0
  4  3  1  0
  4 15  1  0
  5 35  1  0
  6 12  1  0
  8 13  1  0
  9 30  1  0
 10  2  1  0
 10 19  1  0
 11 32  1  0
 12 38  1  0
 14 21  1  0
 14  9  1  0
 14 10  1  0
 15 26  1  0
 16 23  1  0
 17 11  2  0
 18  5  4  0
 18  2  1  0
 19 16  1  0
 20 28  1  0
 20 21  1  0
 23 34  1  0
 24 33  1  0
 25 24  1  0
 25 33  1  0
 25 22  1  0
 26 11  1  0
 26 13  2  0
 27  6  2  0
 28 18  4  0
 29  4  2  0
 30 19  1  0
 30  7  1  0
 31  5  4  0
 34 25  1  0
 35 15  2  0
 35 17  1  0
 36  7  1  0
 37 28  4  0
 37 31  4  0
 38  8  2  0
M  END
$$$$

     RDKit          3D

 38 41  0  0  0  0  0  0  0  0999 V2000
  190.3633  178.0718  141.7612 C   0  0  0  0  0  0  0  0  0  0  0  0
  193.0732  177.1378  151.7625 C   0  0  0  0  0  0  0  0  0  0  0  0
  184.1869  180.3123  146.4436 N   0  0  0  0  0  0  0  0  0  0  0  0
  188.8493  177.6941  143.7154 C   0  0  0  0  0  0  0  0  0  0  0  0
  190.0731  176.4808  145.5663 C   0  0  0  0  0  0  0  0  0  0  0  0
  189.2648  178.6733  142.6179 C   0  0  0  0  0  0  0  0  0  0  0  0
  186.9835  177.1223  145.3111 C   0  0  0  0  0  0  0  0  0  0  0  0
  194.6235  175.0000  151.2738 O   0  0  0  0  0  0  0  0  0  0  0  0
  189.9908  177.5186  144.5775 N   0  0  0  0  0  0  0  0  0  0  0  0
  189.0059  175.8631  146.0956 C   0  0  0  0  0  0  0  0  0  0  0  0
  190.2938  174.0136  136.3135 C   0  0  0  0  0  0  0  0  0  0  0  0
  184.7572  178.1211  145.5145 N   0  0  0  0  0  0  0  0  0  0  0  0
  193.3740  175.6804  150.7875 S   0  0  0  0  0  0  0  0  0  0  0  0
  191.2979  173.7629  137.4276 C   0  0  0  0  0  0  0  0  0  0  0  0
  185.1321  179.4806  145.7829 C   0  0  0  0  0  0  0  0  0  0  0  0
  193.9225  179.3705  152.3959 C   0  0  0  0  0  0  0  0  0  0  0  0
  185.5208  177.0889  145.3246 C   0  0  0  0  0  0  0  0  0  0  0  0
  193.7678  175.2334  146.8700 C   0  0  0  0  0  0  0  0  0  0  0  0
  190.5542  173.1556  135.2625 F   0  0  0  0  0  0  0  0  0  0  0  0
  189.3768  177.5165  138.6982 N   0  0  0  0  0  0  0  0  0  0  0  0
  188.9996  173.7884  136.7835 O   0  0  0  0  0  0  0  0  0  0  0  0
  191.1505  178.2611  144.1185 C   0  0  0  0  0  0  0  0  0  0  0  0
  190.4236  178.8071  140.4375 C   0  0  0  0  0  0  0  0  0  0  0  0
  186.2613  180.0524  145.3563 C   0  0  0  0  0  0  0  0  0  0  0  0
  192.2064  174.7453  150.9352 O   0  0  0  0  0  0  0  0  0  0  0  0
  191.8157  176.1401  137.9841 C   0  0  0  0  0  0  0  0  0  0  0  0
  191.3664  176.0358  146.0179 C   0  0  0  0  0  0  0  0  0  0  0  0
  192.4503  175.6702  146.3992 C   0  0  0  0  0  0  0  0  0  0  0  0
  190.4681  177.8275  139.3181 C   0  0  0  0  0  0  0  0  0  0  0  0
  187.3693  179.4449  144.6074 C   0  0  0  0  0  0  0  0  0  0  0  0
  193.5588  176.1309  149.1262 N   0  0  0  0  0  0  0  0  0  0  0  0
  193.7172  174.9092  148.3524 C   0  0  0  0  0  0  0  0  0  0  0  0
  187.6029  176.1397  145.9009 N   0  0  0  0  0  0  0  0  0  0  0  0
  190.7180  179.0326  142.8809 C   0  0  0  0  0  0  0  0  0  0  0  0
  191.7018  177.1768  138.9992 N   0  0  0  0  0  0  0  0  0  0  0  0
  191.2119  174.8425  138.4949 C   0  0  0  0  0  0  0  0  0  0  0  0
  194.2196  178.1159  151.6038 C   0  0  0  0  0  0  0  0  0  0  0  0
  187.6844  178.1488  144.5341 C   0  0  0  0  0  0  0  0  0  0  0  0
  1 23  1  0
  1  6  1  0
  1 34  1  0
  3 15  1  0
  4 38  1  0
  4  9  1  0
  5 27  1  0
  5 10  2  0
  6 34  1  0
  6  4  1  0
  7 17  1  0
  7 33  2  0
  8 13  2  0
  9  5  1  0
 11 14  1  0
 12 17  2  0
 13  2  1  0
 13 25  2  0
 14 36  1  0
 15 12  1  0
 18 32  1  0
 19 11  1  0
 20 29  2  0
 21 11  1  0
 22  9  1  0
 24 30  1  0
 24 15  2  0
 26 35  1  0
 27 28  3  0
 28 18  1  0
 29 35  1  0
 29 23  1  0
 30 38  2  0
 31 13  1  0
 32 31  1  0
 33 10  1  0
 34 22  1  0
 36 26  1  0
 37 16  1  0
 37  2  1  0
 38  7  1  0
M  END
$$$$

     RDKit          3D

 38 40  0  0  0  0  0  0  0  0999 V2000
  187.9293  178.1831  143.4462 C   0  0  0  0  0  0  0  0  0  0  0  0
  180.1839  177.7715  139.4524 O   0  0  0  0  0  0  0  0  0  0  0  0
  190.3007  176.7129  145.9460 N   0  0  0  0  0  0  0  0  0  0  0  0
  182.9852  177.9257  140.2498 C   0  0  0  0  0  0  0  0  0  0  0  0
  181.4309  180.0635  142.9131 C   0  0  0  0  0  0  0  0  0  0  0  0
  189.7752  176.1554  147.0550 C   0  0  0  0  0  0  0  0  0  0  0  0
  190.3014  177.4527  142.8847 C   0  0  0  0  0  0  0  0  0  0  0  0
  194.5863  178.3615  147.9390 C   0  0  0  0  0  0  0  0  0  0  0  0
  182.2741  179.2400  141.9939 C   0  0  0  0  0  0  0  0  0  0  0  0
  185.5258  178.6960  143.8583 C   0  0  0  0  0  0  0  0  0  0  0  0
  195.7286  179.7653  146.3842 O   0  0  0  0  0  0  0  0  0  0  0  0
  183.7439  179.1128  142.1329 C   0  0  0  0  0  0  0  0  0  0  0  0
  191.6558  178.6635  148.9998 C   0  0  0  0  0  0  0  0  0  0  0  0
  181.8444  178.5688  140.9429 C   0  0  0  0  0  0  0  0  0  0  0  0
  191.7129  175.2559  146.6279 C   0  0  0  0  0  0  0  0  0  0  0  0
  180.4475  178.4470  140.4839 C   0  0  0  0  0  0  0  0  0  0  0  0
  194.5598  176.4654  146.7874 C   0  0  0  0  0  0  0  0  0  0  0  0
  179.4099  179.0615  141.1731 O   0  0  0  0  0  0  0  0  0  0  0  0
  190.5738  178.2447  144.0854 N   0  0  0  0  0  0  0  0  0  0  0  0
  192.9779  174.4612  146.7455 C   0  0  0  0  0  0  0  0  0  0  0  0
  184.0894  178.4116  143.4439 C   0  0  0  0  0  0  0  0  0  0  0  0
  189.7048  177.8207  145.1992 C   0  0  0  0  0  0  0  0  0  0  0  0
  191.4869  176.1903  145.6884 N   0  0  0  0  0  0  0  0  0  0  0  0
  188.2664  177.4819  144.7594 C   0  0  0  0  0  0  0  0  0  0  0  0
  190.6617  175.2001  147.5265 C   0  0  0  0  0  0  0  0  0  0  0  0
  195.1520  174.3631  147.7732 O   0  0  0  0  0  0  0  0  0  0  0  0
  191.6303  178.9887  147.6435 O   0  0  0  0  0  0  0  0  0  0  0  0
  188.8967  177.7492  142.3426 C   0  0  0  0  0  0  0  0  0  0  0  0
  195.4197  179.6157  147.7348 C   0  0  0  0  0  0  0  0  0  0  0  0
  194.0765  175.2116  147.5062 C   0  0  0  0  0  0  0  0  0  0  0  0
  194.1082  178.2858  149.3837 C   0  0  0  0  0  0  0  0  0  0  0  0
  192.9231  179.2109  149.6357 C   0  0  0  0  0  0  0  0  0  0  0  0
  193.7652  174.8054  144.4802 O   0  0  0  0  0  0  0  0  0  0  0  0
  190.4968  179.2432  149.6534 N   0  0  0  0  0  0  0  0  0  0  0  0
  186.5031  177.8807  143.0261 C   0  0  0  0  0  0  0  0  0  0  0  0
  184.1905  178.2977  140.9994 N   0  0  0  0  0  0  0  0  0  0  0  0
  195.3552  177.2303  147.6453 O   0  0  0  0  0  0  0  0  0  0  0  0
  193.4271  173.8313  145.4232 C   0  0  0  0  0  0  0  0  0  0  0  0
  1 35  1  0
  1 24  1  0
  2 16  2  0
  3  6  4  0
  4 14  1  0
  4 36  1  0
  6 25  4  0
  7 19  1  0
  8 29  1  0
  8 31  1  0
  9 12  1  0
  9  5  1  0
 10 35  1  0
 10 21  1  0
 11 29  1  0
 12 21  1  0
 13 27  1  0
 13 32  1  0
 13 34  1  0
 14  9  2  0
 15 25  4  0
 16 14  1  0
 17 37  1  0
 18 16  1  0
 19 22  1  0
 20 38  1  0
 20 30  1  0
 20 15  1  0
 22 24  1  0
 22  3  1  0
 23  3  4  0
 23 15  4  0
 28  7  1  0
 28  1  1  0
 30 26  1  0
 30 17  1  0
 31 32  1  0
 33 38  1  0
 36 12  1  0
 37  8  1  0
M  END
$$$$

     RDKit          3D

 38 42  0  0  0  0  0  0  0  0999 V2000
  194.2958  175.3142  134.3791 O   0  0  0  0  0  0  0  0  0  0  0  0
  192.2027  178.0658  149.2950 C   0  0  0  0  0  0  0  0  0  0  0  0
  193.3131  176.0539  135.0250 C   0  0  0  0  0  0  0  0  0  0  0  0
  186.6599  176.4330  144.9884 C   0  0  0  0  0  0  0  0  0  0  0  0
  192.9528  175.7494  136.4122 C   0  0  0  0  0  0  0  0  0  0  0  0
  194.6742  178.7227  150.6894 C   0  0  0  0  0  0  0  0  0  0  0  0
  187.6387  177.4565  147.7083 C   0  0  0  0  0  0  0  0  0  0  0  0
  192.2645  177.4306  141.9138 C   0  0  0  0  0  0  0  0  0  0  0  0
  189.0591  176.8487  145.7164 C   0  0  0  0  0  0  0  0  0  0  0  0
  192.9446  174.7543  138.4209 C   0  0  0  0  0  0  0  0  0  0  0  0
  186.4323  176.9869  147.4098 C   0  0  0  0  0  0  0  0  0  0  0  0
  190.6917  177.1373  143.8347 C   0  0  0  0  0  0  0  0  0  0  0  0
  193.2172  180.6197  151.6348 C   0  0  0  0  0  0  0  0  0  0  0  0
  191.9566  176.9290  143.2812 C   0  0  0  0  0  0  0  0  0  0  0  0
  192.9218  176.2239  144.0024 C   0  0  0  0  0  0  0  0  0  0  0  0
  191.9026  176.3814  140.8805 C   0  0  0  0  0  0  0  0  0  0  0  0
  186.1356  176.1566  146.2905 N   0  0  0  0  0  0  0  0  0  0  0  0
  192.2848  173.4077  138.6467 C   0  0  0  0  0  0  0  0  0  0  0  0
  192.2285  176.9041  139.4950 C   0  0  0  0  0  0  0  0  0  0  0  0
  192.6054  175.7425  145.2733 C   0  0  0  0  0  0  0  0  0  0  0  0
  193.3775  177.1769  149.2212 C   0  0  0  0  0  0  0  0  0  0  0  0
  191.0400  177.7678  148.5012 C   0  0  0  0  0  0  0  0  0  0  0  0
  191.1678  180.1127  150.3357 C   0  0  0  0  0  0  0  0  0  0  0  0
  188.9156  177.2125  147.0173 C   0  0  0  0  0  0  0  0  0  0  0  0
  194.5100  177.4594  149.8787 C   0  0  0  0  0  0  0  0  0  0  0  0
  190.4076  176.6511  145.1192 C   0  0  0  0  0  0  0  0  0  0  0  0
  193.5121  174.8040  137.0818 N   0  0  0  0  0  0  0  0  0  0  0  0
  191.8842  175.8623  138.4439 C   0  0  0  0  0  0  0  0  0  0  0  0
  192.7331  176.9878  134.4118 O   0  0  0  0  0  0  0  0  0  0  0  0
  187.9397  176.7131  144.7595 C   0  0  0  0  0  0  0  0  0  0  0  0
  190.0712  177.5152  147.8289 C   0  0  0  0  0  0  0  0  0  0  0  0
  191.3692  175.9605  145.7967 N   0  0  0  0  0  0  0  0  0  0  0  0
  185.7713  176.2978  143.8002 C   0  0  0  0  0  0  0  0  0  0  0  0
  191.9597  176.4634  137.1241 N   0  0  0  0  0  0  0  0  0  0  0  0
  193.3888  179.3884  150.8967 N   0  0  0  0  0  0  0  0  0  0  0  0
  185.0332  175.3763  146.3845 O   0  0  0  0  0  0  0  0  0  0  0  0
  191.7600  181.0450  151.3992 C   0  0  0  0  0  0  0  0  0  0  0  0
  192.2421  179.1177  150.1190 C   0  0  0  0  0  0  0  0  0  0  0  0
  1  3  1  0
  2 38  2  0
  3  5  1  0
  4 17  1  0
  5 34  1  0
  5 27  2  0
  6 35  1  0
  8 14  1  0
  9 24  2  0
 10 18  1  0
 11  7  2  0
 12 26  4  0
 14 12  4  0
 14 15  4  0
 15 20  4  0
 16  8  1  0
 17 36  1  0
 17 11  1  0
 19 16  1  0
 20 32  4  0
 21  2  1  0
 21 25  2  0
 22  2  1  0
 23 37  1  0
 24  7  1  0
 24 31  1  0
 25  6  1  0
 26  9  1  0
 26 32  4  0
 27 10  1  0
 28 10  1  0
 28 19  1  0
 29  3  2  0
 30  4  2  0
 30  9  1  0
 31 22  3  0
 33  4  1  0
 34 28  1  0
 35 13  1  0
 37 13  1  0
 38 23  1  0
 38 35  1  0
M  END
$$$$

     RDKit          3D

 38 40  0  0  0  0  0  0  0  0999 V2000
  190.9992  175.6736  139.2489 C   0  0  0  0  0  0  0  0  0  0  0  0
  187.0183  181.2029  145.7371 C   0  0  0  0  0  0  0  0  0  0  0  0
  194.2161  178.2748  151.2063 C   0  0  0  0  0  0  0  0  0  0  0  0
  191.3533  175.3848  146.8901 C   0  0  0  0  0  0  0  0  0  0  0  0
  186.1738  177.9687  143.2055 N   0  0  0  0  0  0  0  0  0  0  0  0
  185.4915  179.8774  144.5279 C   0  0  0  0  0  0  0  0  0  0  0  0
  191.5783  176.0058  140.6098 C   0  0  0  0  0  0  0  0  0  0  0  0
  185.7540  180.9322  145.3391 N   0  0  0  0  0  0  0  0  0  0  0  0
  191.3998  174.3326  138.8678 N   0  0  0  0  0  0  0  0  0  0  0  0
  191.4476  177.5961  142.5258 C   0  0  0  0  0  0  0  0  0  0  0  0
  190.3476  175.7954  145.8307 C   0  0  0  0  0  0  0  0  0  0  0  0
  186.8428  176.9927  142.6787 C   0  0  0  0  0  0  0  0  0  0  0  0
  191.7429  178.3645  140.2951 O   0  0  0  0  0  0  0  0  0  0  0  0
  195.7947  181.0759  152.7786 C   0  0  0  0  0  0  0  0  0  0  0  0
  188.0381  180.4131  145.3238 N   0  0  0  0  0  0  0  0  0  0  0  0
  192.7366  175.4947  146.2524 C   0  0  0  0  0  0  0  0  0  0  0  0
  192.3070  176.7271  151.5479 C   0  0  0  0  0  0  0  0  0  0  0  0
  193.8225  176.8645  151.5003 C   0  0  0  0  0  0  0  0  0  0  0  0
  190.5500  176.7538  143.4314 C   0  0  0  0  0  0  0  0  0  0  0  0
  189.7725  174.5322  145.1995 C   0  0  0  0  0  0  0  0  0  0  0  0
  194.2551  179.2534  152.2528 N   0  0  0  0  0  0  0  0  0  0  0  0
  194.4958  178.5984  150.0206 O   0  0  0  0  0  0  0  0  0  0  0  0
  193.9299  178.9000  153.5210 O   0  0  0  0  0  0  0  0  0  0  0  0
  194.5984  180.6394  151.9539 C   0  0  0  0  0  0  0  0  0  0  0  0
  192.3968  174.8779  149.4396 O   0  0  0  0  0  0  0  0  0  0  0  0
  191.7383  176.9348  150.2594 O   0  0  0  0  0  0  0  0  0  0  0  0
  186.5302  179.0384  144.0870 C   0  0  0  0  0  0  0  0  0  0  0  0
  187.8383  179.3387  144.5140 C   0  0  0  0  0  0  0  0  0  0  0  0
  191.2610  176.2761  147.9948 O   0  0  0  0  0  0  0  0  0  0  0  0
  189.1721  177.3440  143.4792 C   0  0  0  0  0  0  0  0  0  0  0  0
  191.1119  177.3814  141.0580 C   0  0  0  0  0  0  0  0  0  0  0  0
  192.5400  176.0229  144.8435 C   0  0  0  0  0  0  0  0  0  0  0  0
  191.8234  175.9849  149.2390 C   0  0  0  0  0  0  0  0  0  0  0  0
  184.1478  179.6353  144.1190 N   0  0  0  0  0  0  0  0  0  0  0  0
  188.2297  176.7091  142.8611 N   0  0  0  0  0  0  0  0  0  0  0  0
  188.9943  178.5892  144.1535 N   0  0  0  0  0  0  0  0  0  0  0  0
  193.4161  181.5459  152.2380 C   0  0  0  0  0  0  0  0  0  0  0  0
  191.1542  176.6336  144.8399 C   0  0  0  0  0  0  0  0  0  0  0  0
  1  7  1  0
  3 22  2  0
  3 18  1  0
  4 29  1  0
  5 27  1  0
  6  8  4  0
  7 31  1  0
  8  2  4  0
  9  1  1  0
 11 20  1  0
 11  4  1  0
 12 35  1  0
 12  5  2  0
 15  2  4  0
 16  4  1  0
 17 18  1  0
 19 10  1  0
 19 30  1  0
 21  3  1  0
 23 21  1  0
 24 21  1  0
 24 14  1  0
 25 33  2  0
 26 17  1  0
 27  6  4  0
 27 28  4  0
 28 15  4  0
 30 36  1  0
 31 13  1  0
 31 10  1  0
 32 16  1  0
 33 29  1  0
 33 26  1  0
 34  6  1  0
 35 30  2  0
 36 28  1  0
 37 24  1  0
 38 19  1  0
 38 32  1  0
 38 11  1  0
M  END
$$$$
